<routes>
    <vType accel="1" decel="5" id="Car" length="5" maxSpeed="10" sigma="1" guiShape="passenger"/>
    <vType accel="3" decel="3" id="Bus" length="10" maxSpeed="30" sigma="0" guiShape="bus"/>

    <vType accel="2" decel="3" id="Motorcycle" length="5" maxSpeed="30" sigma="1" guiShape="motorcycle"/>


    <!-- <route id="rota_0" edges="0to1 1to2 2to3 3to0 0to1 1to2 2to3 3to0 0to1 1to2 2to3 3to0 0to1 1to2 2to3 3to0 0to1 1to2 2to3 3to0 0to1 1to2 2to3 3to0 0to1 1to2 2to3 3to0 0to1 1to2 2to3 3to0 0to1 1to2 2to3 3to0 0to1 1to2 2to3 3to0 0to1 1to2 2to3 3to0 0to1 1to2 2to3 3to0"/>
    <route id="rota_0_inv" edges="0to3 3to2 2to1 1to0"/>
    <route id="rota_1" edges="3to4 4to2 2to1 1to0 0to3"/>
    <route id="rota_2" edges="2to1 1to0 0to4 4to2 2to1"/>
    <route id="rota_3" edges="1to2 2to3 3to4 4to0 0to1"/>
    <route id="rota_4" edges="4to1 1to2 2to3 3to4"/> -->


    <vehicle id="bus_1" depart="0" departPos="0" departLane="best" arrivalPos="-1" type="Bus" color="1,0,1">
        <route edges="0to1 1to2 2to3 3to0 0to1 1to2 2to3 3to0 0to1 1to2 2to3 3to0 0to1 1to2 2to3 3to0 0to1 1to2 2to3 3to0 0to1 1to2 2to3 3to0 0to1 1to2 2to3 3to0 0to1 1to2 2to3 3to0 0to1 1to2 2to3 3to0 0to1 1to2 2to3 3to0 0to1 1to2 2to3 3to0 0to1 1to2 2to3 3to0">
            <stop busStop="busStop#1" duration="20"/>
            <stop busStop="busStop#2" duration="20"/>
        </route>
    </vehicle>

     <!--
    <vehicle id="bus_2" depart="30" departLane="best" arrivalPos="-1" route="rota_0" type="Bus" color="1,0,1">
        <stop busStop="busStop#1" duration="20"/>
        <stop busStop="busStop#2" duration="20"/>
    </vehicle>
    <vehicle id="bus_3" depart="60" departLane="best" arrivalPos="-1" route="rota_0" type="Bus" color="1,0,1">
        <stop busStop="busStop#1" duration="20"/>
        <stop busStop="busStop#2" duration="20"/>
    </vehicle>
    <vehicle id="bus_4" depart="90" departLane="best" arrivalPos="-1" route="rota_0" type="Bus" color="1,0,1">
        <stop busStop="busStop#1" duration="20"/>
        <stop busStop="busStop#2" duration="20"/>
    </vehicle>
    <vehicle id="bus_5" depart="120" departLane="best" arrivalPos="-1" route="rota_0" type="Bus" color="1,0,1">
        <stop busStop="busStop#1" duration="20"/>
        <stop busStop="busStop#2" duration="20"/>
    </vehicle>
    <vehicle id="bus_6" depart="150" departLane="best" arrivalPos="-1" route="rota_0" type="Bus" color="1,0,1">
        <stop busStop="busStop#1" duration="20"/>
        <stop busStop="busStop#2" duration="20"/>
    </vehicle>
    <vehicle id="bus_7" depart="180" departLane="best" arrivalPos="-1" route="rota_0" type="Bus" color="1,0,1">
        <stop busStop="busStop#1" duration="20"/>
        <stop busStop="busStop#2" duration="20"/>
    </vehicle>
    <vehicle id="bus_8" depart="210" departLane="best" arrivalPos="-1" route="rota_0" type="Bus" color="1,0,1">
        <stop busStop="busStop#1" duration="20"/>
        <stop busStop="busStop#2" duration="20"/>
    </vehicle>
    <vehicle id="bus_9" depart="240" departLane="best" arrivalPos="-1" route="rota_0" type="Bus" color="1,0,1">
        <stop busStop="busStop#1" duration="20"/>
        <stop busStop="busStop#2" duration="20"/>
    </vehicle>
    <vehicle id="bus_10" depart="270" departLane="best" arrivalPos="-1" route="rota_0" type="Bus" color="1,0,1">
        <stop busStop="busStop#1" duration="20"/>
        <stop busStop="busStop#2" duration="20"/>
    </vehicle>
    <vehicle id="bus_11" depart="300" departLane="best" arrivalPos="-1" route="rota_0" type="Bus" color="1,0,1">
        <stop busStop="busStop#1" duration="20"/>
        <stop busStop="busStop#2" duration="20"/>
    </vehicle> -->

    <!-- <flow id="cycleflow1" type="Car" beg="0" end="0" number="5" route="routedist0" color="1,0,0"/> -->
    <!-- <flow id="busflow2" type="Bus" beg="0" end="0" number="2" route="rota_0" color="0,0,1">
        <stop busStop="busStop#1" duration="20" index="end"/>
        <stop busStop="busStop#2" duration="20" index="end"/>
    </flow> -->

    <!-- <flow id="carflow3" type="Car" beg="0" end="0" number="5" route="routedist0" color="0,1,0"/>
    <flow id="busflow4" type="Bus" beg="0" end="0" number="5" route="routedist0" color="1,1,0"/>

    <flow id="carflow5" type="Car" beg="0" end="0" number="5" route="routedist0" color="0,1,0"/>
    <flow id="busflow6" type="Bus" beg="0" end="0" number="5" route="routedist0" color="0,1,1"/> -->

    <!-- <route id="cicle" edges="0to1 1to2 2to0"/>
    <route id="cicle_inv" edges="0to2 2to1 1to0"/>
    <flow id="carflow_test" type="Car" beg="0" end="0" number="2" route="cicle" color="1,1,1"/>
    <flow id="carflow2" type="Car" beg="0" end="0" number="2" route="cicle_inv" color="0,1,1"/> -->
        <!-- <stop busStop="station1" duration="30"> -->
</routes>
