<routes>
    <vType accel="1" decel="5" id="Car" lenght="5" maxSpeed="10" sigma="0.5"/>
    <!--
    <route id="rota_0" edges="road1_2 road2_4 road4_5 road5_3 road3_1"/>
    <route id="rota_1" edges="road1_3 road3_5 road5_4 road4_2 road2_1"/>
    <route id="rota_2" edges="road1_2 road2_4 road4_5 road5_3 road3_1"/>
    <route id="rota_3" edges="road1_3 road3_4 road4_2 road2_1"/>


    <vehicle depart="1" id="car_1" route="rota_0" type="Car" color="1,0,1"/>
    <vehicle depart="1" id="car_8" route="rota_1" type="Car" color="0,1,0"/>


    <flow id="carflow1" type="Car" beg="0" end="0" number="1" route="rota_0" color="1,0,0"/>
    <flow id="carflow2" type="Car" beg="0" end="0" number="2" route="rota_1" color="0,1,0"/>
    <flow id="carflow3" type="Car" beg="0" end="0" number="2" route="rota_3" color="0,0,1"/>
    <flow id="carflow4" type="Car" beg="0" end="0" number="2" route="rota_2" color="1,1,0"/>
    <flow id="carflow5" type="Car" beg="0" end="0" number="2" route="rota_0" color="0,1,1"/>
    -->

    <route id="cicle" edges="0to1 1to2 2to0"/>
    <route id="cicle_inv" edges="0to2 2to1 1to0"/>
    <flow id="carflow_test" type="Car" beg="0" end="0" number="2" route="cicle" color="1,1,1"/>
    <flow id="carflow2" type="Car" beg="0" end="0" number="2" route="cicle_inv" color="0,1,1"/>
        <!-- <stop busStop="station1" duration="30"> -->
</routes>
