<routes>
    <vType accel="1" decel="5" id="Car" length="5" maxSpeed="10" sigma="1" guiShape="passenger"/>
    <vType accel="3" decel="3" id="Bus" length="10" maxSpeed="30" sigma="0" guiShape="bus"/>

    <vType accel="2" decel="3" id="Motorcycle" length="5" maxSpeed="30" sigma="1" guiShape="motorcycle"/>


    <route id="rota_0" edges="0to1 1to2 2to3 3to0"/>
    <route id="rota_0_inv" edges="0to3 3to2 2to1 1to0"/>
    <route id="rota_1" edges="3to4 4to2 2to1 1to0 0to3"/>
    <route id="rota_2" edges="2to1 1to0 0to4 4to2 2to1"/>
    <route id="rota_3" edges="1to2 2to3 3to4 4to0 0to1"/>
    <route id="rota_4" edges="4to1 1to2 2to3 3to4"/>

    <vehicle id="bus_1" depart="0" departPos="0" departLane="best" arrivalPos="-1" type="Bus" route="rota_0" color="1,0,1">
        <stop busStop="busStop#1" duration="20"/>
        <stop busStop="busStop#2" duration="20"/>
    </vehicle>

    <!-- <flow id="busflow2" type="Bus" beg="0" end="0" number="2" route="rota_0" color="0,0,1">
        <stop busStop="busStop#1" duration="20"/>
        <stop busStop="busStop#2" duration="20"/>
    </flow> -->

</routes>
