<edges>
    <!--
    <edge id="road1_2" from="1" to="2" numLanes="1" oneway="no"/>
    <edge id="road2_4" from="2" to="4" numLanes="1" oneway="no"/>
    <edge id="road4_5" from="4" to="5" numLanes="1" oneway="no"/>
    <edge id="road5_3" from="5" to="3" numLanes="1" oneway="no"/>
    <edge id="road3_1" from="3" to="1" numLanes="1" oneway="no"/>
    <edge id="road1_5" from="1" to="5" numLanes="1" oneway="no"/>
    <edge id="road5_1" from="5" to="1" numLanes="1" oneway="no"/>
    <edge id="road3_4" from="3" to="4" numlanes="1" oneway="no"/>
    <edge id="road1_3" from="1" to="3" numLanes="1" oneway="no"/>
    <edge id="road3_5" from="3" to="5" numLanes="1" oneway="no"/>
    <edge id="road5_4" from="5" to="4" numLanes="1" oneway="no"/>
    <edge id="road4_2" from="4" to="2" numLanes="1" oneway="no"/>
    <edge id="road2_1" from="2" to="1" numLanes="1" oneway="no"/>
    <edge id="road4_3" from="4" to="3" numLanes="1" oneway="no"/>
    -->
    <edge id="0to1" from="separate_0" to="separate_1" numLanes="1"/>
    <edge id="1to2" from="separate_1" to="separate_2" numLanes="1"/>
    <edge id="2to1" from="separate_2" to="separate_1" numLanes="1"/>
    <edge id="1to0" from="separate_1" to="separate_0" numLanes="1"/>
    <edge id="0to2" from="separate_0" to="separate_2" numLanes="1"/>
    <edge id="2to0" from="separate_2" to="separate_0" numLanes="1"/>
</edges>
