<?xml version="1.0" encoding="UTF-8"?>

<!-- generated on seg 23 out 2017 14:28:13 -03 by Netedit Version 0.28.0
<?xml version="1.0" encoding="UTF-8"?>

<configuration xmlns:xsi="http://www.w3.org/2001/XMLSchema-instance" xsi:noNamespaceSchemaLocation="http://sumo.dlr.de/xsd/netedit.exeConfiguration.xsd">

    <input>
        <sumo-net-file value="/home/gustavo/Área%20de%20Trabalho/GitHub/SUMO/sumo/ex1.net.xml"/>
    </input>

    <output>
        <output-file value="/home/gustavo/Área%20de%20Trabalho/GitHub/SUMO/sumo/ex1.net.xml"/>
    </output>

    <processing>
        <no-turnarounds value="true"/>
        <offset.disable-normalization value="true"/>
        <lefthand value="false"/>
        <junctions.corner-detail value="0"/>
    </processing>

</configuration>
-->

<net version="0.27" xmlns:xsi="http://www.w3.org/2001/XMLSchema-instance" xsi:noNamespaceSchemaLocation="http://sumo.dlr.de/xsd/net_file.xsd">

    <location netOffset="50.00,20.00" convBoundary="-380.01,-116.68,20.63,113.12" origBoundary="-50.00,-20.00,50.00,100.00" projParameter="!"/>

    <edge id=":0_0" function="internal">
        <lane id=":0_0_0" index="0" speed="13.90" length="16.24" shape="-373.11,117.86 -378.30,117.28 -382.00,115.17 -384.22,111.53 -384.96,106.37"/>
        <lane id=":0_0_1" index="1" speed="13.90" length="16.24" shape="-373.21,114.57 -376.91,114.15 -379.55,112.64 -381.13,110.05 -381.66,106.37"/>
    </edge>
    <edge id=":0_2" function="internal">
        <lane id=":0_2_0" index="0" speed="13.90" length="5.36" shape="-375.06,106.37 -374.96,107.09 -374.65,107.59 -374.13,107.89 -373.41,107.97"/>
        <lane id=":0_2_1" index="1" speed="13.90" length="5.36" shape="-378.36,106.37 -378.04,108.57 -377.10,110.12 -375.52,111.02 -373.31,111.27"/>
    </edge>
    <edge id=":1_0" function="internal">
        <lane id=":1_0_0" index="0" speed="13.90" length="15.98" shape="25.32,94.24 24.79,99.33 22.76,103.01 19.22,105.29 14.18,106.17"/>
        <lane id=":1_0_1" index="1" speed="13.90" length="15.98" shape="22.02,94.36 21.64,97.99 20.19,100.62 17.67,102.25 14.08,102.87"/>
    </edge>
    <edge id=":1_2" function="internal">
        <lane id=":1_2_0" index="0" speed="13.90" length="5.27" shape="13.88,96.28 14.58,96.15 15.07,95.84 15.35,95.32 15.43,94.62"/>
        <lane id=":1_2_1" index="1" speed="13.90" length="5.27" shape="13.98,99.57 16.13,99.20 17.63,98.23 18.50,96.66 18.73,94.49"/>
    </edge>
    <edge id=":2_0" function="internal">
        <lane id=":2_0_0" index="0" speed="13.90" length="5.21" shape="7.61,-110.01 7.49,-110.70 7.17,-111.18 6.66,-111.46 5.97,-111.54"/>
        <lane id=":2_0_1" index="1" speed="13.90" length="5.21" shape="10.91,-110.13 10.53,-112.25 9.56,-113.73 8.01,-114.60 5.87,-114.84"/>
    </edge>
    <edge id=":2_2" function="internal">
        <lane id=":2_2_0" index="0" speed="13.90" length="15.78" shape="5.68,-121.44 10.69,-120.87 14.33,-118.84 16.60,-115.34 17.51,-110.38"/>
        <lane id=":2_2_1" index="1" speed="13.90" length="15.78" shape="5.78,-118.14 9.35,-117.74 11.94,-116.29 13.56,-113.79 14.21,-110.26"/>
    </edge>
    <edge id=":3_0" function="internal">
        <lane id=":3_0_0" index="0" speed="13.90" length="15.56" shape="-384.96,-98.98 -384.26,-103.89 -382.17,-107.44 -378.68,-109.63 -373.79,-110.47"/>
        <lane id=":3_0_1" index="1" speed="13.90" length="15.56" shape="-381.66,-98.98 -381.16,-102.48 -379.67,-105.01 -377.18,-106.58 -373.70,-107.17"/>
    </edge>
    <edge id=":3_2" function="internal">
        <lane id=":3_2_0" index="0" speed="13.90" length="5.13" shape="-373.51,-100.58 -374.19,-100.46 -374.67,-100.15 -374.96,-99.66 -375.06,-98.98"/>
        <lane id=":3_2_1" index="1" speed="13.90" length="5.13" shape="-373.60,-103.87 -375.68,-103.52 -377.17,-102.58 -378.06,-101.07 -378.36,-98.98"/>
    </edge>

    <edge id="0to1" from="0" to="1" priority="-1">
        <lane id="0to1_0" index="0" speed="13.90" length="387.47" shape="-373.41,107.97 13.88,96.28"/>
        <lane id="0to1_1" index="1" speed="13.90" length="387.47" shape="-373.31,111.27 13.98,99.57"/>
    </edge>
    <edge id="0to3" from="0" to="3" priority="-1">
        <lane id="0to3_0" index="0" speed="13.90" length="205.35" shape="-384.96,106.37 -384.96,-98.98"/>
        <lane id="0to3_1" index="1" speed="13.90" length="205.35" shape="-381.66,106.37 -381.66,-98.98"/>
    </edge>
    <edge id="1to0" from="1" to="0" priority="-1">
        <lane id="1to0_0" index="0" speed="13.90" length="387.47" shape="14.18,106.17 -373.11,117.86"/>
        <lane id="1to0_1" index="1" speed="13.90" length="387.47" shape="14.08,102.87 -373.21,114.57"/>
    </edge>
    <edge id="1to2" from="1" to="2" priority="-1">
        <lane id="1to2_0" index="0" speed="13.90" length="204.77" shape="15.43,94.62 7.61,-110.01"/>
        <lane id="1to2_1" index="1" speed="13.90" length="204.77" shape="18.73,94.49 10.91,-110.13"/>
    </edge>
    <edge id="2to1" from="2" to="1" priority="-1">
        <lane id="2to1_0" index="0" speed="13.90" length="204.77" shape="17.51,-110.38 25.32,94.24"/>
        <lane id="2to1_1" index="1" speed="13.90" length="204.77" shape="14.21,-110.26 22.02,94.36"/>
    </edge>
    <edge id="2to3" from="2" to="3" priority="-1">
        <lane id="2to3_0" index="0" speed="13.90" length="379.63" shape="5.97,-111.54 -373.51,-100.58"/>
        <lane id="2to3_1" index="1" speed="13.90" length="379.63" shape="5.87,-114.84 -373.60,-103.87"/>
    </edge>
    <edge id="3to0" from="3" to="0" priority="-1">
        <lane id="3to0_0" index="0" speed="13.90" length="205.35" shape="-375.06,-98.98 -375.06,106.37"/>
        <lane id="3to0_1" index="1" speed="13.90" length="205.35" shape="-378.36,-98.98 -378.36,106.37"/>
    </edge>
    <edge id="3to2" from="3" to="2" priority="-1">
        <lane id="3to2_0" index="0" speed="13.90" length="379.63" shape="-373.79,-110.47 5.68,-121.44"/>
        <lane id="3to2_1" index="1" speed="13.90" length="379.63" shape="-373.70,-107.17 5.78,-118.14"/>
    </edge>

    <tlLogic id="0" type="static" programID="0" offset="0">
        <phase duration="41" state="GGGG"/>
        <phase duration="4" state="yyyy"/>
        <phase duration="41" state="GGGG"/>
        <phase duration="4" state="yyyy"/>
    </tlLogic>
    <tlLogic id="1" type="static" programID="0" offset="0">
        <phase duration="41" state="GGGG"/>
        <phase duration="4" state="yyyy"/>
        <phase duration="41" state="GGGG"/>
        <phase duration="4" state="yyyy"/>
    </tlLogic>
    <tlLogic id="2" type="static" programID="0" offset="0">
        <phase duration="41" state="GGGG"/>
        <phase duration="4" state="yyyy"/>
        <phase duration="41" state="GGGG"/>
        <phase duration="4" state="yyyy"/>
    </tlLogic>
    <tlLogic id="3" type="static" programID="0" offset="0">
        <phase duration="41" state="GGGG"/>
        <phase duration="4" state="yyyy"/>
        <phase duration="41" state="GGGG"/>
        <phase duration="4" state="yyyy"/>
    </tlLogic>

    <junction id="0" type="traffic_light" x="-380.01" y="113.12" incLanes="1to0_0 1to0_1 3to0_0 3to0_1" intLanes=":0_0_0 :0_0_1 :0_2_0 :0_2_1" shape="-373.06,119.46 -373.46,106.37 -386.56,106.37">
        <request index="0" response="0000" foes="0000" cont="0"/>
        <request index="1" response="0000" foes="0000" cont="0"/>
        <request index="2" response="0000" foes="0000" cont="0"/>
        <request index="3" response="0000" foes="0000" cont="0"/>
    </junction>
    <junction id="1" type="traffic_light" x="20.63" y="101.02" incLanes="2to1_0 2to1_1 0to1_0 0to1_1" intLanes=":1_0_0 :1_0_1 :1_2_0 :1_2_1" shape="26.92,94.18 13.83,94.68 14.22,107.77">
        <request index="0" response="0000" foes="0000" cont="0"/>
        <request index="1" response="0000" foes="0000" cont="0"/>
        <request index="2" response="0000" foes="0000" cont="0"/>
        <request index="3" response="0000" foes="0000" cont="0"/>
    </junction>
    <junction id="2" type="traffic_light" x="12.31" y="-116.68" incLanes="1to2_0 1to2_1 3to2_0 3to2_1" intLanes=":2_0_0 :2_0_1 :2_2_0 :2_2_1" shape="6.01,-109.94 19.10,-110.44 5.64,-123.04">
        <request index="0" response="0000" foes="0000" cont="0"/>
        <request index="1" response="0000" foes="0000" cont="0"/>
        <request index="2" response="0000" foes="0000" cont="0"/>
        <request index="3" response="0000" foes="0000" cont="0"/>
    </junction>
    <junction id="3" type="traffic_light" x="-380.01" y="-105.34" incLanes="0to3_0 0to3_1 2to3_0 2to3_1" intLanes=":3_0_0 :3_0_1 :3_2_0 :3_2_1" shape="-386.56,-98.98 -373.46,-98.98 -373.84,-112.07">
        <request index="0" response="0000" foes="0000" cont="0"/>
        <request index="1" response="0000" foes="0000" cont="0"/>
        <request index="2" response="0000" foes="0000" cont="0"/>
        <request index="3" response="0000" foes="0000" cont="0"/>
    </junction>

    <connection from="0to1" to="1to2" fromLane="0" toLane="0" via=":1_2_0" tl="1" linkIndex="2" dir="r" state="o"/>
    <connection from="0to1" to="1to2" fromLane="1" toLane="1" via=":1_2_1" tl="1" linkIndex="3" dir="r" state="o"/>
    <connection from="0to3" to="3to2" fromLane="0" toLane="0" via=":3_0_0" tl="3" linkIndex="0" dir="l" state="o"/>
    <connection from="0to3" to="3to2" fromLane="1" toLane="1" via=":3_0_1" tl="3" linkIndex="1" dir="l" state="o"/>
    <connection from="1to0" to="0to3" fromLane="0" toLane="0" via=":0_0_0" tl="0" linkIndex="0" dir="l" state="o"/>
    <connection from="1to0" to="0to3" fromLane="1" toLane="1" via=":0_0_1" tl="0" linkIndex="1" dir="l" state="o"/>
    <connection from="1to2" to="2to3" fromLane="0" toLane="0" via=":2_0_0" tl="2" linkIndex="0" dir="r" state="o"/>
    <connection from="1to2" to="2to3" fromLane="1" toLane="1" via=":2_0_1" tl="2" linkIndex="1" dir="r" state="o"/>
    <connection from="2to1" to="1to0" fromLane="0" toLane="0" via=":1_0_0" tl="1" linkIndex="0" dir="l" state="o"/>
    <connection from="2to1" to="1to0" fromLane="1" toLane="1" via=":1_0_1" tl="1" linkIndex="1" dir="l" state="o"/>
    <connection from="2to3" to="3to0" fromLane="0" toLane="0" via=":3_2_0" tl="3" linkIndex="2" dir="r" state="o"/>
    <connection from="2to3" to="3to0" fromLane="1" toLane="1" via=":3_2_1" tl="3" linkIndex="3" dir="r" state="o"/>
    <connection from="3to0" to="0to1" fromLane="0" toLane="0" via=":0_2_0" tl="0" linkIndex="2" dir="r" state="o"/>
    <connection from="3to0" to="0to1" fromLane="1" toLane="1" via=":0_2_1" tl="0" linkIndex="3" dir="r" state="o"/>
    <connection from="3to2" to="2to1" fromLane="0" toLane="0" via=":2_2_0" tl="2" linkIndex="2" dir="l" state="o"/>
    <connection from="3to2" to="2to1" fromLane="1" toLane="1" via=":2_2_1" tl="2" linkIndex="3" dir="l" state="o"/>

    <connection from=":0_0" to="0to3" fromLane="0" toLane="0" dir="s" state="M"/>
    <connection from=":0_0" to="0to3" fromLane="1" toLane="1" dir="s" state="M"/>
    <connection from=":0_2" to="0to1" fromLane="0" toLane="0" dir="s" state="M"/>
    <connection from=":0_2" to="0to1" fromLane="1" toLane="1" dir="s" state="M"/>
    <connection from=":1_0" to="1to0" fromLane="0" toLane="0" dir="s" state="M"/>
    <connection from=":1_0" to="1to0" fromLane="1" toLane="1" dir="s" state="M"/>
    <connection from=":1_2" to="1to2" fromLane="0" toLane="0" dir="s" state="M"/>
    <connection from=":1_2" to="1to2" fromLane="1" toLane="1" dir="s" state="M"/>
    <connection from=":2_0" to="2to3" fromLane="0" toLane="0" dir="s" state="M"/>
    <connection from=":2_0" to="2to3" fromLane="1" toLane="1" dir="s" state="M"/>
    <connection from=":2_2" to="2to1" fromLane="0" toLane="0" dir="s" state="M"/>
    <connection from=":2_2" to="2to1" fromLane="1" toLane="1" dir="s" state="M"/>
    <connection from=":3_0" to="3to2" fromLane="0" toLane="0" dir="s" state="M"/>
    <connection from=":3_0" to="3to2" fromLane="1" toLane="1" dir="s" state="M"/>
    <connection from=":3_2" to="3to0" fromLane="0" toLane="0" dir="s" state="M"/>
    <connection from=":3_2" to="3to0" fromLane="1" toLane="1" dir="s" state="M"/>

</net>
