<?xml version="1.0" encoding="UTF-8"?>

<!-- generated on seg 23 out 2017 13:42:43 -03 by Netedit Version 0.28.0
<?xml version="1.0" encoding="UTF-8"?>

<configuration xmlns:xsi="http://www.w3.org/2001/XMLSchema-instance" xsi:noNamespaceSchemaLocation="http://sumo.dlr.de/xsd/netedit.exeConfiguration.xsd">

    <input>
        <sumo-net-file value="/home/gustavo/Área%20de%20Trabalho/GitHub/SUMO/sumo/ex1.net.xml"/>
    </input>

    <output>
        <output-file value="/home/gustavo/Área%20de%20Trabalho/GitHub/SUMO/sumo/ex1.net.xml"/>
    </output>

    <processing>
        <no-turnarounds value="true"/>
        <offset.disable-normalization value="true"/>
        <lefthand value="false"/>
        <junctions.corner-detail value="0"/>
    </processing>

</configuration>
-->

<net version="0.27" xmlns:xsi="http://www.w3.org/2001/XMLSchema-instance" xsi:noNamespaceSchemaLocation="http://sumo.dlr.de/xsd/net_file.xsd">

    <location netOffset="50.00,20.00" convBoundary="-194.46,0.00,100.00,120.00" origBoundary="-50.00,-20.00,50.00,100.00" projParameter="!"/>

    <edge id=":1_0" function="internal">
        <lane id=":1_0_0" index="0" speed="13.90" length="17.73" shape="9.35,121.65 4.54,120.96 1.10,118.90 -0.96,115.46 -1.65,110.65"/>
    </edge>
    <edge id=":1_1" function="internal">
        <lane id=":1_1_0" index="0" speed="13.90" length="10.57" shape="9.35,121.65 4.10,121.06 1.71,119.29 2.05,117.00"/>
    </edge>
    <edge id=":1_6" function="internal">
        <lane id=":1_6_0" index="0" speed="13.90" length="5.94" shape="2.05,117.00 2.15,116.35 5.44,112.22"/>
    </edge>
    <edge id=":1_2" function="internal">
        <lane id=":1_2_0" index="0" speed="13.90" length="6.64" shape="7.78,114.56 6.45,116.22 6.27,117.40 7.24,118.11 9.35,118.35"/>
    </edge>
    <edge id=":1_3" function="internal">
        <lane id=":1_3_0" index="0" speed="13.90" length="16.51" shape="7.78,114.56 3.65,117.85 0.71,118.29 -1.06,115.90 -1.65,110.65"/>
    </edge>
    <edge id=":1_4" function="internal">
        <lane id=":1_4_0" index="0" speed="13.90" length="6.64" shape="1.65,110.65 1.89,112.76 2.60,113.73 3.78,113.55 5.44,112.22"/>
    </edge>
    <edge id=":1_5" function="internal">
        <lane id=":1_5_0" index="0" speed="13.90" length="12.41" shape="1.65,110.65 2.13,114.02 3.57,116.43 5.98,117.87 9.35,118.35"/>
    </edge>
    <edge id=":2_0" function="internal">
        <lane id=":2_0_0" index="0" speed="13.90" length="7.90" shape="101.65,116.75 101.34,118.89 100.43,120.43 98.89,121.34 96.75,121.65"/>
    </edge>
    <edge id=":2_1" function="internal">
        <lane id=":2_1_0" index="0" speed="13.90" length="2.58" shape="96.75,118.35 97.45,118.25 97.95,117.95 98.25,117.45 98.35,116.75"/>
    </edge>
    <edge id=":3_0" function="internal">
        <lane id=":3_0_0" index="0" speed="13.90" length="18.45" shape="-1.65,11.64 -1.06,5.83 0.72,1.67 3.67,-0.82 7.82,-1.65"/>
    </edge>
    <edge id=":3_1" function="internal">
        <lane id=":3_1_0" index="0" speed="13.90" length="11.19" shape="-1.65,11.64 -1.04,5.15 0.79,2.46 2.12,2.95"/>
    </edge>
    <edge id=":3_6" function="internal">
        <lane id=":3_6_0" index="0" speed="13.90" length="8.35" shape="2.12,2.95 3.84,3.59 8.11,8.51"/>
    </edge>
    <edge id=":3_2" function="internal">
        <lane id=":3_2_0" index="0" speed="13.90" length="7.56" shape="5.42,10.43 3.77,8.53 2.59,8.09 1.89,9.13 1.65,11.64"/>
    </edge>
    <edge id=":3_3" function="internal">
        <lane id=":3_3_0" index="0" speed="13.90" length="17.21" shape="5.42,10.43 2.34,5.15 1.71,1.37 3.53,-0.89 7.82,-1.65"/>
    </edge>
    <edge id=":3_4" function="internal">
        <lane id=":3_4_0" index="0" speed="13.90" length="8.93" shape="7.82,1.65 6.11,2.08 5.58,3.37 6.25,5.51 8.11,8.51"/>
    </edge>
    <edge id=":3_5" function="internal">
        <lane id=":3_5_0" index="0" speed="13.90" length="13.17" shape="7.82,1.65 5.12,2.27 3.19,4.15 2.04,7.27 1.65,11.64"/>
    </edge>
    <edge id=":4_0" function="internal">
        <lane id=":4_0_0" index="0" speed="13.90" length="7.56" shape="98.35,11.64 98.11,9.13 97.41,8.09 96.23,8.53 94.58,10.43"/>
    </edge>
    <edge id=":4_1" function="internal">
        <lane id=":4_1_0" index="0" speed="13.90" length="13.17" shape="98.35,11.64 97.96,7.27 96.81,4.15 94.88,2.27 92.18,1.65"/>
    </edge>
    <edge id=":4_2" function="internal">
        <lane id=":4_2_0" index="0" speed="13.90" length="18.45" shape="92.18,-1.65 96.33,-0.82 99.28,1.67 101.06,5.83 101.65,11.64"/>
    </edge>
    <edge id=":4_3" function="internal">
        <lane id=":4_3_0" index="0" speed="13.90" length="8.99" shape="92.18,-1.65 96.47,-0.89 98.29,1.37 98.01,3.08"/>
    </edge>
    <edge id=":4_6" function="internal">
        <lane id=":4_6_0" index="0" speed="13.90" length="8.21" shape="98.01,3.08 97.66,5.15 94.58,10.43"/>
    </edge>
    <edge id=":4_4" function="internal">
        <lane id=":4_4_0" index="0" speed="13.90" length="8.93" shape="91.89,8.51 93.75,5.51 94.42,3.37 93.89,2.08 92.18,1.65"/>
    </edge>
    <edge id=":4_5" function="internal">
        <lane id=":4_5_0" index="0" speed="13.90" length="19.54" shape="91.89,8.51 96.16,3.59 99.21,2.46 101.04,5.15 101.65,11.64"/>
    </edge>
    <edge id=":5_0" function="internal">
        <lane id=":5_0_0" index="0" speed="13.90" length="10.54" shape="54.86,66.04 48.16,74.17"/>
    </edge>
    <edge id=":5_1" function="internal">
        <lane id=":5_1_0" index="0" speed="13.90" length="5.70" shape="54.86,66.04 52.43,68.59 50.38,69.31"/>
    </edge>
    <edge id=":5_6" function="internal">
        <lane id=":5_6_0" index="0" speed="13.90" length="6.50" shape="50.38,69.31 50.00,69.44 47.57,68.59 45.14,66.04"/>
    </edge>
    <edge id=":5_2" function="internal">
        <lane id=":5_2_0" index="0" speed="13.90" length="5.46" shape="47.83,64.12 48.91,65.26 50.00,65.64 51.09,65.26 52.17,64.12"/>
    </edge>
    <edge id=":5_3" function="internal">
        <lane id=":5_3_0" index="0" speed="13.90" length="11.06" shape="47.83,64.12 49.47,67.02 50.07,69.66 49.64,72.05 48.16,74.17"/>
    </edge>
    <edge id=":5_4" function="internal">
        <lane id=":5_4_0" index="0" speed="13.90" length="6.38" shape="45.83,71.84 46.54,70.72 46.66,69.38 46.20,67.82 45.14,66.04"/>
    </edge>
    <edge id=":5_5" function="internal">
        <lane id=":5_5_0" index="0" speed="13.90" length="10.02" shape="45.83,71.84 47.90,69.71 49.24,68.18 50.45,66.54 52.17,64.12"/>
    </edge>
    <edge id=":gneJ19_0" function="internal">
        <lane id=":gneJ19_0_0" index="0" speed="13.90" length="18.04" shape="-183.71,105.59 -189.14,104.97 -193.01,103.11 -195.34,100.01 -196.11,95.67"/>
    </edge>
    <edge id=":gneJ19_1" function="internal">
        <lane id=":gneJ19_1_0" index="0" speed="13.90" length="10.83" shape="-183.71,105.59 -189.72,104.99 -192.28,103.17 -191.83,101.59"/>
    </edge>
    <edge id=":gneJ19_6" function="internal">
        <lane id=":gneJ19_6_0" index="0" speed="13.90" length="7.53" shape="-191.83,101.59 -191.41,100.16 -187.10,95.93"/>
    </edge>
    <edge id=":gneJ19_2" function="internal">
        <lane id=":gneJ19_2_0" index="0" speed="13.90" length="7.19" shape="-185.04,98.50 -186.73,100.16 -187.07,101.34 -186.06,102.05 -183.71,102.29"/>
    </edge>
    <edge id=":gneJ19_3" function="internal">
        <lane id=":gneJ19_3_0" index="0" speed="13.90" length="16.78" shape="-185.04,98.50 -189.88,101.65 -193.34,102.23 -195.42,100.24 -196.11,95.67"/>
    </edge>
    <edge id=":gneJ19_4" function="internal">
        <lane id=":gneJ19_4_0" index="0" speed="13.90" length="8.00" shape="-192.81,95.67 -192.46,97.50 -191.39,98.15 -189.60,97.63 -187.10,95.93"/>
    </edge>
    <edge id=":gneJ19_5" function="internal">
        <lane id=":gneJ19_5_0" index="0" speed="13.90" length="12.74" shape="-192.81,95.67 -192.24,98.57 -190.54,100.64 -187.69,101.88 -183.71,102.29"/>
    </edge>
    <edge id=":gneJ20_0" function="internal">
        <lane id=":gneJ20_0_0" index="0" speed="13.90" length="18.24" shape="-76.70,95.92 -77.51,100.15 -79.92,103.17 -83.94,104.99 -89.57,105.59"/>
    </edge>
    <edge id=":gneJ20_1" function="internal">
        <lane id=":gneJ20_1_0" index="0" speed="13.90" length="9.14" shape="-76.70,95.92 -77.43,100.33 -79.60,102.23 -81.36,101.94"/>
    </edge>
    <edge id=":gneJ20_6" function="internal">
        <lane id=":gneJ20_6_0" index="0" speed="13.90" length="7.85" shape="-81.36,101.94 -83.23,101.63 -88.30,98.51"/>
    </edge>
    <edge id=":gneJ20_2" function="internal">
        <lane id=":gneJ20_2_0" index="0" speed="13.90" length="8.48" shape="-86.32,95.87 -83.56,97.66 -81.58,98.26 -80.40,97.69 -80.00,95.92"/>
    </edge>
    <edge id=":gneJ20_3" function="internal">
        <lane id=":gneJ20_3_0" index="0" speed="13.90" length="18.97" shape="-86.32,95.87 -81.69,100.12 -80.68,103.16 -83.31,104.98 -89.57,105.59"/>
    </edge>
    <edge id=":gneJ20_4" function="internal">
        <lane id=":gneJ20_4_0" index="0" speed="13.90" length="7.38" shape="-89.57,102.29 -87.13,102.05 -86.11,101.34 -86.50,100.16 -88.30,98.51"/>
    </edge>
    <edge id=":gneJ20_5" function="internal">
        <lane id=":gneJ20_5_0" index="0" speed="13.90" length="12.95" shape="-89.57,102.29 -85.38,101.89 -82.40,100.70 -80.60,98.71 -80.00,95.92"/>
    </edge>
    <edge id=":gneJ21_0" function="internal">
        <lane id=":gneJ21_0_0" index="0" speed="13.90" length="7.88" shape="-80.00,18.47 -80.35,16.62 -81.39,15.95 -83.13,16.45 -85.56,18.13"/>
    </edge>
    <edge id=":gneJ21_1" function="internal">
        <lane id=":gneJ21_1_0" index="0" speed="13.90" length="12.70" shape="-80.00,18.47 -80.57,15.55 -82.25,13.46 -85.06,12.20 -88.99,11.78"/>
    </edge>
    <edge id=":gneJ21_2" function="internal">
        <lane id=":gneJ21_2_0" index="0" speed="13.90" length="18.00" shape="-88.99,8.48 -83.62,9.11 -79.78,10.98 -77.47,14.10 -76.70,18.47"/>
    </edge>
    <edge id=":gneJ21_3" function="internal">
        <lane id=":gneJ21_3_0" index="0" speed="13.90" length="10.79" shape="-88.99,8.48 -83.05,9.09 -80.50,10.90 -80.95,12.52"/>
    </edge>
    <edge id=":gneJ21_6" function="internal">
        <lane id=":gneJ21_6_0" index="0" speed="13.90" length="7.42" shape="-80.95,12.52 -81.33,13.91 -85.56,18.13"/>
    </edge>
    <edge id=":gneJ21_4" function="internal">
        <lane id=":gneJ21_4_0" index="0" speed="13.90" length="7.15" shape="-87.65,15.57 -85.99,13.91 -85.66,12.73 -86.66,12.02 -88.99,11.78"/>
    </edge>
    <edge id=":gneJ21_5" function="internal">
        <lane id=":gneJ21_5_0" index="0" speed="13.90" length="16.74" shape="-87.65,15.57 -82.86,12.41 -79.44,11.84 -77.39,13.86 -76.70,18.47"/>
    </edge>
    <edge id=":gneJ22_0" function="internal">
        <lane id=":gneJ22_0_0" index="0" speed="13.90" length="7.90" shape="-196.11,13.38 -195.81,11.24 -194.89,9.71 -193.36,8.79 -191.21,8.48"/>
    </edge>
    <edge id=":gneJ22_1" function="internal">
        <lane id=":gneJ22_1_0" index="0" speed="13.90" length="2.58" shape="-191.21,11.78 -191.91,11.88 -192.41,12.18 -192.71,12.68 -192.81,13.38"/>
    </edge>
    <edge id=":gneJ23_0" function="internal">
        <lane id=":gneJ23_0_0" index="0" speed="13.90" length="6.15" shape="-134.68,63.57 -136.34,62.53 -137.83,62.03 -139.15,62.07 -140.31,62.66"/>
    </edge>
    <edge id=":gneJ23_1" function="internal">
        <lane id=":gneJ23_1_0" index="0" speed="13.90" length="11.64" shape="-134.68,63.57 -137.01,61.22 -137.82,58.85 -137.10,56.44 -134.86,54.01"/>
    </edge>
    <edge id=":gneJ23_2" function="internal">
        <lane id=":gneJ23_2_0" index="0" speed="13.90" length="5.32" shape="-132.78,56.57 -133.80,57.68 -134.13,58.78 -133.76,59.86 -132.69,60.93"/>
    </edge>
    <edge id=":gneJ23_3" function="internal">
        <lane id=":gneJ23_3_0" index="0" speed="13.90" length="9.69" shape="-132.78,56.57 -140.31,62.66"/>
    </edge>
    <edge id=":gneJ23_4" function="internal">
        <lane id=":gneJ23_4_0" index="0" speed="13.90" length="9.66" shape="-142.37,60.08 -134.86,54.01"/>
    </edge>
    <edge id=":gneJ23_5" function="internal">
        <lane id=":gneJ23_5_0" index="0" speed="13.90" length="4.81" shape="-142.37,60.08 -140.21,58.89 -137.88,58.64"/>
    </edge>
    <edge id=":gneJ23_6" function="internal">
        <lane id=":gneJ23_6_0" index="0" speed="13.90" length="5.73" shape="-137.88,58.64 -135.37,59.32 -132.69,60.93"/>
    </edge>

    <edge id="-gneE19" from="gneJ20" to="gneJ19" priority="-1">
        <lane id="-gneE19_0" index="0" speed="13.90" length="94.14" shape="-89.57,105.59 -183.71,105.59"/>
    </edge>
    <edge id="-gneE20" from="gneJ21" to="gneJ20" priority="-1">
        <lane id="-gneE20_0" index="0" speed="13.90" length="77.45" shape="-76.70,18.47 -76.70,95.92"/>
    </edge>
    <edge id="-gneE21" from="gneJ22" to="gneJ21" priority="-1">
        <lane id="-gneE21_0" index="0" speed="13.90" length="102.22" shape="-191.21,8.48 -88.99,8.48"/>
    </edge>
    <edge id="-gneE22" from="gneJ19" to="gneJ22" priority="-1">
        <lane id="-gneE22_0" index="0" speed="13.90" length="82.29" shape="-196.11,95.67 -196.11,13.38"/>
    </edge>
    <edge id="-gneE23" from="gneJ23" to="gneJ19" priority="-1">
        <lane id="-gneE23_0" index="0" speed="13.90" length="57.32" shape="-140.31,62.66 -185.04,98.50"/>
    </edge>
    <edge id="-gneE24" from="gneJ21" to="gneJ23" priority="-1">
        <lane id="-gneE24_0" index="0" speed="13.90" length="60.88" shape="-85.56,18.13 -132.78,56.57"/>
    </edge>
    <edge id="-gneE25" from="gneJ20" to="gneJ23" priority="-1">
        <lane id="-gneE25_0" index="0" speed="13.90" length="58.06" shape="-88.30,98.51 -134.68,63.57"/>
    </edge>
    <edge id="gneE19" from="gneJ19" to="gneJ20" priority="-1">
        <lane id="gneE19_0" index="0" speed="13.90" length="94.14" shape="-183.71,102.29 -89.57,102.29"/>
    </edge>
    <edge id="gneE20" from="gneJ20" to="gneJ21" priority="-1">
        <lane id="gneE20_0" index="0" speed="13.90" length="77.45" shape="-80.00,95.92 -80.00,18.47"/>
    </edge>
    <edge id="gneE21" from="gneJ21" to="gneJ22" priority="-1">
        <lane id="gneE21_0" index="0" speed="13.90" length="102.22" shape="-88.99,11.78 -191.21,11.78"/>
    </edge>
    <edge id="gneE22" from="gneJ22" to="gneJ19" priority="-1">
        <lane id="gneE22_0" index="0" speed="13.90" length="82.29" shape="-192.81,13.38 -192.81,95.67"/>
    </edge>
    <edge id="gneE23" from="gneJ19" to="gneJ23" priority="-1">
        <lane id="gneE23_0" index="0" speed="13.90" length="57.32" shape="-187.10,95.93 -142.37,60.08"/>
    </edge>
    <edge id="gneE24" from="gneJ23" to="gneJ21" priority="-1">
        <lane id="gneE24_0" index="0" speed="13.90" length="60.88" shape="-134.86,54.01 -87.65,15.57"/>
    </edge>
    <edge id="gneE25" from="gneJ23" to="gneJ20" priority="-1">
        <lane id="gneE25_0" index="0" speed="13.90" length="58.06" shape="-132.69,60.93 -86.32,95.87"/>
    </edge>
    <edge id="road1_2" from="1" to="2" priority="-1">
        <lane id="road1_2_0" index="0" speed="13.90" length="87.40" shape="9.35,118.35 96.75,118.35"/>
    </edge>
    <edge id="road1_3" from="1" to="3" priority="-1">
        <lane id="road1_3_0" index="0" speed="13.90" length="99.01" shape="-1.65,110.65 -1.65,11.64"/>
    </edge>
    <edge id="road1_5" from="1" to="5" priority="-1">
        <lane id="road1_5_0" index="0" speed="13.90" length="57.11" shape="5.44,112.22 45.83,71.84"/>
    </edge>
    <edge id="road2_1" from="2" to="1" priority="-1">
        <lane id="road2_1_0" index="0" speed="13.90" length="87.40" shape="96.75,121.65 9.35,121.65"/>
    </edge>
    <edge id="road2_4" from="2" to="4" priority="-1">
        <lane id="road2_4_0" index="0" speed="13.90" length="105.11" shape="98.35,116.75 98.35,11.64"/>
    </edge>
    <edge id="road3_1" from="3" to="1" priority="-1">
        <lane id="road3_1_0" index="0" speed="13.90" length="99.01" shape="1.65,11.64 1.65,110.65"/>
    </edge>
    <edge id="road3_4" from="3" to="4" priority="-1">
        <lane id="road3_4_0" index="0" speed="13.90" length="84.37" shape="7.82,-1.65 92.18,-1.65"/>
    </edge>
    <edge id="road3_5" from="3" to="5" priority="-1">
        <lane id="road3_5_0" index="0" speed="13.90" length="68.33" shape="8.11,8.51 47.83,64.12"/>
    </edge>
    <edge id="road4_2" from="4" to="2" priority="-1">
        <lane id="road4_2_0" index="0" speed="13.90" length="105.11" shape="101.65,11.64 101.65,116.75"/>
    </edge>
    <edge id="road4_3" from="4" to="3" priority="-1">
        <lane id="road4_3_0" index="0" speed="13.90" length="84.37" shape="92.18,1.65 7.82,1.65"/>
    </edge>
    <edge id="road4_5" from="4" to="5" priority="-1">
        <lane id="road4_5_0" index="0" speed="13.90" length="68.33" shape="94.58,10.43 54.86,66.04"/>
    </edge>
    <edge id="road5_1" from="5" to="1" priority="-1">
        <lane id="road5_1_0" index="0" speed="13.90" length="57.11" shape="48.16,74.17 7.78,114.56"/>
    </edge>
    <edge id="road5_3" from="5" to="3" priority="-1">
        <lane id="road5_3_0" index="0" speed="13.90" length="68.33" shape="45.14,66.04 5.42,10.43"/>
    </edge>
    <edge id="road5_4" from="5" to="4" priority="-1">
        <lane id="road5_4_0" index="0" speed="13.90" length="68.33" shape="52.17,64.12 91.89,8.51"/>
    </edge>

    <tlLogic id="2" type="static" programID="0" offset="0">
        <phase duration="41" state="GG"/>
        <phase duration="4" state="yy"/>
        <phase duration="41" state="GG"/>
        <phase duration="4" state="yy"/>
    </tlLogic>
    <tlLogic id="3" type="static" programID="0" offset="0">
        <phase duration="36" state="GgrrGG"/>
        <phase duration="4" state="ygrryy"/>
        <phase duration="6" state="rGrrrr"/>
        <phase duration="4" state="ryrrrr"/>
        <phase duration="36" state="rrGGGr"/>
        <phase duration="4" state="rryyyr"/>
    </tlLogic>
    <tlLogic id="4" type="static" programID="0" offset="0">
        <phase duration="36" state="GGGgrr"/>
        <phase duration="4" state="yyygrr"/>
        <phase duration="6" state="rrrGrr"/>
        <phase duration="4" state="rrryrr"/>
        <phase duration="36" state="GrrrGG"/>
        <phase duration="4" state="yrrryy"/>
    </tlLogic>
    <tlLogic id="5" type="static" programID="0" offset="0">
        <phase duration="36" state="GgrrGG"/>
        <phase duration="4" state="ygrryy"/>
        <phase duration="6" state="rGrrrr"/>
        <phase duration="4" state="ryrrrr"/>
        <phase duration="36" state="rrGGGr"/>
        <phase duration="4" state="rryyyr"/>
    </tlLogic>
    <tlLogic id="gneJ19" type="static" programID="0" offset="0">
        <phase duration="36" state="GgrrGG"/>
        <phase duration="4" state="ygrryy"/>
        <phase duration="6" state="rGrrrr"/>
        <phase duration="4" state="ryrrrr"/>
        <phase duration="36" state="rrGGGr"/>
        <phase duration="4" state="rryyyr"/>
    </tlLogic>
    <tlLogic id="gneJ20" type="static" programID="0" offset="0">
        <phase duration="36" state="GgrrGG"/>
        <phase duration="4" state="ygrryy"/>
        <phase duration="6" state="rGrrrr"/>
        <phase duration="4" state="ryrrrr"/>
        <phase duration="36" state="rrGGGr"/>
        <phase duration="4" state="rryyyr"/>
    </tlLogic>
    <tlLogic id="gneJ21" type="static" programID="0" offset="0">
        <phase duration="36" state="GGGgrr"/>
        <phase duration="4" state="yyygrr"/>
        <phase duration="6" state="rrrGrr"/>
        <phase duration="4" state="rrryrr"/>
        <phase duration="36" state="GrrrGG"/>
        <phase duration="4" state="yrrryy"/>
    </tlLogic>
    <tlLogic id="gneJ23" type="static" programID="0" offset="0">
        <phase duration="36" state="rrGGGg"/>
        <phase duration="4" state="rryyyg"/>
        <phase duration="6" state="rrrrrG"/>
        <phase duration="4" state="rrrrry"/>
        <phase duration="36" state="GGGrrr"/>
        <phase duration="4" state="yyyrrr"/>
    </tlLogic>
    <tlLogic id="gneJ23" type="static" programID="1" offset="0">
        <phase duration="36" state="rrGGGg"/>
        <phase duration="4" state="rryyyg"/>
        <phase duration="6" state="rrrrrG"/>
        <phase duration="4" state="rrrrry"/>
        <phase duration="36" state="GGGrrr"/>
        <phase duration="4" state="yyyrrr"/>
    </tlLogic>

    <junction id="1" type="priority" x="0.00" y="120.00" incLanes="road2_1_0 road5_1_0 road3_1_0" intLanes=":1_0_0 :1_6_0 :1_2_0 :1_3_0 :1_4_0 :1_5_0" shape="9.35,123.25 9.35,116.75 8.91,115.69 4.31,111.09 3.25,110.65 -3.25,110.65">
        <request index="0" response="000000" foes="001000" cont="0"/>
        <request index="1" response="110000" foes="111000" cont="1"/>
        <request index="2" response="100000" foes="100000" cont="0"/>
        <request index="3" response="100011" foes="100011" cont="0"/>
        <request index="4" response="000000" foes="000010" cont="0"/>
        <request index="5" response="000000" foes="001110" cont="0"/>
    </junction>
    <junction id="2" type="traffic_light" x="100.00" y="120.00" incLanes="road4_2_0 road1_2_0" intLanes=":2_0_0 :2_1_0" shape="103.25,116.75 96.75,116.75 96.75,123.25">
        <request index="0" response="00" foes="00" cont="0"/>
        <request index="1" response="00" foes="00" cont="0"/>
    </junction>
    <junction id="3" type="traffic_light" x="0.00" y="0.00" incLanes="road1_3_0 road5_3_0 road4_3_0" intLanes=":3_0_0 :3_6_0 :3_2_0 :3_3_0 :3_4_0 :3_5_0" shape="-3.25,11.64 3.25,11.64 4.12,11.36 9.41,7.58 7.82,3.25 7.82,-3.25">
        <request index="0" response="000000" foes="001000" cont="0"/>
        <request index="1" response="110000" foes="111000" cont="1"/>
        <request index="2" response="100000" foes="100000" cont="0"/>
        <request index="3" response="100011" foes="100011" cont="0"/>
        <request index="4" response="000000" foes="000010" cont="0"/>
        <request index="5" response="000000" foes="001110" cont="0"/>
    </junction>
    <junction id="4" type="traffic_light" x="100.00" y="0.00" incLanes="road2_4_0 road3_4_0 road5_4_0" intLanes=":4_0_0 :4_1_0 :4_2_0 :4_6_0 :4_4_0 :4_5_0" shape="96.75,11.64 103.25,11.64 92.18,-3.25 92.18,3.25 90.59,7.58 95.88,11.36">
        <request index="0" response="000000" foes="001000" cont="0"/>
        <request index="1" response="000000" foes="111000" cont="0"/>
        <request index="2" response="000000" foes="100000" cont="0"/>
        <request index="3" response="000011" foes="100011" cont="1"/>
        <request index="4" response="000010" foes="000010" cont="0"/>
        <request index="5" response="001110" foes="001110" cont="0"/>
    </junction>
    <junction id="5" type="traffic_light" x="50.00" y="70.00" incLanes="road4_5_0 road3_5_0 road1_5_0" intLanes=":5_0_0 :5_6_0 :5_2_0 :5_3_0 :5_4_0 :5_5_0" shape="56.16,66.97 50.87,63.19 49.13,63.19 43.84,66.97 44.69,70.71 49.29,75.31">
        <request index="0" response="000000" foes="001000" cont="0"/>
        <request index="1" response="110000" foes="111000" cont="1"/>
        <request index="2" response="100000" foes="100000" cont="0"/>
        <request index="3" response="100011" foes="100011" cont="0"/>
        <request index="4" response="000000" foes="000010" cont="0"/>
        <request index="5" response="000000" foes="001110" cont="0"/>
    </junction>
    <junction id="gneJ19" type="traffic_light" x="-194.46" y="103.94" incLanes="-gneE19_0 -gneE23_0 gneE22_0" intLanes=":gneJ19_0_0 :gneJ19_6_0 :gneJ19_2_0 :gneJ19_3_0 :gneJ19_4_0 :gneJ19_5_0" shape="-183.71,107.19 -183.71,100.69 -184.04,99.75 -188.10,94.68 -191.21,95.67 -197.71,95.67">
        <request index="0" response="000000" foes="001000" cont="0"/>
        <request index="1" response="110000" foes="111000" cont="1"/>
        <request index="2" response="100000" foes="100000" cont="0"/>
        <request index="3" response="100011" foes="100011" cont="0"/>
        <request index="4" response="000000" foes="000010" cont="0"/>
        <request index="5" response="000000" foes="001110" cont="0"/>
    </junction>
    <junction id="gneJ20" type="traffic_light" x="-78.35" y="103.94" incLanes="-gneE20_0 gneE25_0 gneE19_0" intLanes=":gneJ20_0_0 :gneJ20_6_0 :gneJ20_2_0 :gneJ20_3_0 :gneJ20_4_0 :gneJ20_5_0" shape="-75.10,95.92 -81.60,95.92 -85.36,94.60 -89.27,99.79 -89.57,100.69 -89.57,107.19">
        <request index="0" response="000000" foes="001000" cont="0"/>
        <request index="1" response="110000" foes="111000" cont="1"/>
        <request index="2" response="100000" foes="100000" cont="0"/>
        <request index="3" response="100011" foes="100011" cont="0"/>
        <request index="4" response="000000" foes="000010" cont="0"/>
        <request index="5" response="000000" foes="001110" cont="0"/>
    </junction>
    <junction id="gneJ21" type="traffic_light" x="-78.35" y="10.13" incLanes="gneE20_0 -gneE21_0 gneE24_0" intLanes=":gneJ21_0_0 :gneJ21_1_0 :gneJ21_2_0 :gneJ21_6_0 :gneJ21_4_0 :gneJ21_5_0" shape="-81.60,18.47 -75.10,18.47 -88.99,6.88 -88.99,13.38 -88.66,14.33 -84.55,19.37">
        <request index="0" response="000000" foes="001000" cont="0"/>
        <request index="1" response="000000" foes="111000" cont="0"/>
        <request index="2" response="000000" foes="100000" cont="0"/>
        <request index="3" response="000011" foes="100011" cont="1"/>
        <request index="4" response="000010" foes="000010" cont="0"/>
        <request index="5" response="001110" foes="001110" cont="0"/>
    </junction>
    <junction id="gneJ22" type="priority" x="-194.46" y="10.13" incLanes="-gneE22_0 gneE21_0" intLanes=":gneJ22_0_0 :gneJ22_1_0" shape="-197.71,13.38 -191.21,13.38 -191.21,6.88">
        <request index="0" response="00" foes="00" cont="0"/>
        <request index="1" response="00" foes="00" cont="0"/>
    </junction>
    <junction id="gneJ23" type="traffic_light" x="-138.20" y="58.85" incLanes="-gneE25_0 -gneE24_0 gneE23_0" intLanes=":gneJ23_0_0 :gneJ23_1_0 :gneJ23_2_0 :gneJ23_3_0 :gneJ23_4_0 :gneJ23_6_0" shape="-135.64,64.85 -131.73,59.66 -131.77,57.81 -135.87,52.77 -143.37,58.83 -139.31,63.91">
        <request index="0" response="001000" foes="001000" cont="0"/>
        <request index="1" response="111000" foes="111000" cont="0"/>
        <request index="2" response="000000" foes="100000" cont="0"/>
        <request index="3" response="000000" foes="100011" cont="0"/>
        <request index="4" response="000000" foes="000010" cont="0"/>
        <request index="5" response="001100" foes="001110" cont="1"/>
    </junction>

    <junction id=":1_6_0" type="internal" x="2.05" y="117.00" incLanes=":1_1_0 road3_1_0" intLanes=":1_3_0 :1_4_0 :1_5_0"/>
    <junction id=":3_6_0" type="internal" x="2.12" y="2.95" incLanes=":3_1_0 road4_3_0" intLanes=":3_3_0 :3_4_0 :3_5_0"/>
    <junction id=":4_6_0" type="internal" x="98.01" y="3.08" incLanes=":4_3_0 road2_4_0" intLanes=":4_0_0 :4_1_0 :4_5_0"/>
    <junction id=":5_6_0" type="internal" x="50.38" y="69.31" incLanes=":5_1_0 road1_5_0" intLanes=":5_3_0 :5_4_0 :5_5_0"/>
    <junction id=":gneJ19_6_0" type="internal" x="-191.83" y="101.59" incLanes=":gneJ19_1_0 gneE22_0" intLanes=":gneJ19_3_0 :gneJ19_4_0 :gneJ19_5_0"/>
    <junction id=":gneJ20_6_0" type="internal" x="-81.36" y="101.94" incLanes=":gneJ20_1_0 gneE19_0" intLanes=":gneJ20_3_0 :gneJ20_4_0 :gneJ20_5_0"/>
    <junction id=":gneJ21_6_0" type="internal" x="-80.95" y="12.52" incLanes=":gneJ21_3_0 gneE20_0" intLanes=":gneJ21_0_0 :gneJ21_1_0 :gneJ21_5_0"/>
    <junction id=":gneJ23_6_0" type="internal" x="-137.88" y="58.64" incLanes=":gneJ23_5_0 -gneE24_0" intLanes=":gneJ23_1_0 :gneJ23_2_0 :gneJ23_3_0"/>

    <connection from="-gneE19" to="-gneE22" fromLane="0" toLane="0" via=":gneJ19_0_0" tl="gneJ19" linkIndex="0" dir="L" state="o"/>
    <connection from="-gneE19" to="gneE23" fromLane="0" toLane="0" via=":gneJ19_1_0" tl="gneJ19" linkIndex="1" dir="l" state="o"/>
    <connection from="-gneE20" to="-gneE19" fromLane="0" toLane="0" via=":gneJ20_0_0" tl="gneJ20" linkIndex="0" dir="L" state="o"/>
    <connection from="-gneE20" to="-gneE25" fromLane="0" toLane="0" via=":gneJ20_1_0" tl="gneJ20" linkIndex="1" dir="l" state="o"/>
    <connection from="-gneE21" to="-gneE20" fromLane="0" toLane="0" via=":gneJ21_2_0" tl="gneJ21" linkIndex="2" dir="L" state="o"/>
    <connection from="-gneE21" to="-gneE24" fromLane="0" toLane="0" via=":gneJ21_3_0" tl="gneJ21" linkIndex="3" dir="l" state="o"/>
    <connection from="-gneE22" to="-gneE21" fromLane="0" toLane="0" via=":gneJ22_0_0" dir="l" state="M"/>
    <connection from="-gneE23" to="gneE19" fromLane="0" toLane="0" via=":gneJ19_2_0" tl="gneJ19" linkIndex="2" dir="r" state="o"/>
    <connection from="-gneE23" to="-gneE22" fromLane="0" toLane="0" via=":gneJ19_3_0" tl="gneJ19" linkIndex="3" dir="l" state="o"/>
    <connection from="-gneE24" to="gneE25" fromLane="0" toLane="0" via=":gneJ23_2_0" tl="gneJ23" linkIndex="2" dir="r" state="o"/>
    <connection from="-gneE24" to="-gneE23" fromLane="0" toLane="0" via=":gneJ23_3_0" tl="gneJ23" linkIndex="3" dir="s" state="o"/>
    <connection from="-gneE25" to="-gneE23" fromLane="0" toLane="0" via=":gneJ23_0_0" tl="gneJ23" linkIndex="0" dir="r" state="o"/>
    <connection from="-gneE25" to="gneE24" fromLane="0" toLane="0" via=":gneJ23_1_0" tl="gneJ23" linkIndex="1" dir="l" state="o"/>
    <connection from="gneE19" to="-gneE25" fromLane="0" toLane="0" via=":gneJ20_4_0" tl="gneJ20" linkIndex="4" dir="r" state="o"/>
    <connection from="gneE19" to="gneE20" fromLane="0" toLane="0" via=":gneJ20_5_0" tl="gneJ20" linkIndex="5" dir="R" state="o"/>
    <connection from="gneE20" to="-gneE24" fromLane="0" toLane="0" via=":gneJ21_0_0" tl="gneJ21" linkIndex="0" dir="r" state="o"/>
    <connection from="gneE20" to="gneE21" fromLane="0" toLane="0" via=":gneJ21_1_0" tl="gneJ21" linkIndex="1" dir="R" state="o"/>
    <connection from="gneE21" to="gneE22" fromLane="0" toLane="0" via=":gneJ22_1_0" dir="r" state="M"/>