<routes>
    <vType accel="1" decel="5" id="Car" length="5" maxSpeed="10" sigma="0"/>
    <vType accel="2" decel="3" id="Bus" length="15" maxSpeed="30" sigma="0"/>

    <route id="rota_0" edges="0to1 1to2 2to3 3to0"/>

    <!-- <vehicle depart="1" id="car_1" route="rota_0" type="Car" color="1,0,1"/>
    <vehicle depart="1" id="car_8" route="rota_1" type="Car" color="0,1,0"/> -->


    <flow id="carflow1" type="Car" beg="0" end="0" number="2" route="rota_0" color="1,0,0"/>
    <flow id="carflow2" type="Bus" beg="0" end="0" number="2" route="rota_0" color="0,0,1"/>
    <!-- <route id="cicle" edges="0to1 1to2 2to0"/>
    <route id="cicle_inv" edges="0to2 2to1 1to0"/>
    <flow id="carflow_test" type="Car" beg="0" end="0" number="2" route="cicle" color="1,1,1"/>
    <flow id="carflow2" type="Car" beg="0" end="0" number="2" route="cicle_inv" color="0,1,1"/> -->
        <!-- <stop busStop="station1" duration="30"> -->
</routes>
