<?xml version="1.0" encoding="UTF-8"?>

<!-- generated on Fri Oct 20 15:33:25 2017 by SUMO netconvert Version 0.28.0
<?xml version="1.0" encoding="UTF-8"?>

<configuration xmlns:xsi="http://www.w3.org/2001/XMLSchema-instance" xsi:noNamespaceSchemaLocation="http://sumo.dlr.de/xsd/netconvertConfiguration.xsd">

    <input>
        <osm-files value="map.osm"/>
    </input>

    <output>
        <output-file value="map.net.xml"/>
    </output>

    <projection>
        <proj.utm value="true"/>
    </projection>

</configuration>
-->

<net version="0.27" xmlns:xsi="http://www.w3.org/2001/XMLSchema-instance" xsi:noNamespaceSchemaLocation="http://sumo.dlr.de/xsd/net_file.xsd">

    <location netOffset="-549051.95,422357.71" convBoundary="0.00,0.00,1941.04,4360.12" origBoundary="-38.558211,-3.821032,-38.540746,-3.781582" projParameter="+proj=utm +zone=24 +ellps=WGS84 +datum=WGS84 +units=m +no_defs"/>

    <type id="highway.bridleway" priority="1" numLanes="1" speed="2.78" allow="pedestrian" oneway="1" width="2.00"/>
    <type id="highway.bus_guideway" priority="1" numLanes="1" speed="8.33" allow="bus" oneway="1"/>
    <type id="highway.cycleway" priority="1" numLanes="1" speed="5.56" allow="bicycle" oneway="0" width="1.00"/>
    <type id="highway.footway" priority="1" numLanes="1" speed="2.78" allow="pedestrian" oneway="1" width="2.00"/>
    <type id="highway.ford" priority="1" numLanes="1" speed="2.78" allow="army" oneway="0"/>
    <type id="highway.living_street" priority="3" numLanes="1" speed="2.78" disallow="tram rail_urban rail rail_electric ship" oneway="0"/>
    <type id="highway.motorway" priority="13" numLanes="2" speed="44.44" allow="private emergency authority army vip passenger hov taxi bus coach delivery truck trailer motorcycle evehicle custom1 custom2" oneway="1"/>
    <type id="highway.motorway_link" priority="12" numLanes="1" speed="22.22" allow="private emergency authority army vip passenger hov taxi bus coach delivery truck trailer motorcycle evehicle custom1 custom2" oneway="1"/>
    <type id="highway.path" priority="1" numLanes="1" speed="2.78" allow="bicycle pedestrian" oneway="1" width="2.00"/>
    <type id="highway.pedestrian" priority="1" numLanes="1" speed="2.78" allow="pedestrian" oneway="1" width="2.00"/>
    <type id="highway.primary" priority="9" numLanes="2" speed="27.78" disallow="tram rail_urban rail rail_electric ship" oneway="0"/>
    <type id="highway.primary_link" priority="8" numLanes="1" speed="22.22" disallow="tram rail_urban rail rail_electric ship" oneway="0"/>
    <type id="highway.raceway" priority="14" numLanes="2" speed="83.33" allow="vip" oneway="0"/>
    <type id="highway.residential" priority="4" numLanes="1" speed="13.89" disallow="tram rail_urban rail rail_electric ship" oneway="0"/>
    <type id="highway.secondary" priority="7" numLanes="2" speed="27.78" disallow="tram rail_urban rail rail_electric ship" oneway="0"/>
    <type id="highway.secondary_link" priority="6" numLanes="1" speed="22.22" disallow="tram rail_urban rail rail_electric ship" oneway="0"/>
    <type id="highway.service" priority="2" numLanes="1" speed="5.56" allow="delivery bicycle pedestrian" oneway="0"/>
    <type id="highway.services" priority="1" numLanes="1" speed="8.33" disallow="tram rail_urban rail rail_electric ship" oneway="0"/>
    <type id="highway.stairs" priority="1" numLanes="1" speed="1.39" allow="pedestrian" oneway="1" width="2.00"/>
    <type id="highway.step" priority="1" numLanes="1" speed="1.39" allow="pedestrian" oneway="1" width="2.00"/>
    <type id="highway.steps" priority="1" numLanes="1" speed="1.39" allow="pedestrian" oneway="1" width="2.00"/>
    <type id="highway.tertiary" priority="6" numLanes="1" speed="22.22" disallow="tram rail_urban rail rail_electric ship" oneway="0"/>
    <type id="highway.tertiary_link" priority="5" numLanes="1" speed="22.22" disallow="tram rail_urban rail rail_electric ship" oneway="0"/>
    <type id="highway.track" priority="1" numLanes="1" speed="5.56" disallow="tram rail_urban rail rail_electric ship" oneway="0"/>
    <type id="highway.trunk" priority="11" numLanes="2" speed="27.78" disallow="tram rail_urban rail rail_electric bicycle pedestrian ship" oneway="0"/>
    <type id="highway.trunk_link" priority="10" numLanes="1" speed="22.22" disallow="tram rail_urban rail rail_electric bicycle pedestrian ship" oneway="0"/>
    <type id="highway.unclassified" priority="5" numLanes="1" speed="13.89" disallow="tram rail_urban rail rail_electric ship" oneway="0"/>
    <type id="highway.unsurfaced" priority="1" numLanes="1" speed="8.33" disallow="tram rail_urban rail rail_electric ship" oneway="0"/>
    <type id="railway.light_rail" priority="15" numLanes="1" speed="27.78" allow="rail_urban" oneway="1"/>
    <type id="railway.preserved" priority="15" numLanes="1" speed="27.78" allow="rail" oneway="1"/>
    <type id="railway.rail" priority="15" numLanes="1" speed="83.33" allow="rail rail_electric" oneway="1"/>
    <type id="railway.subway" priority="15" numLanes="1" speed="27.78" allow="rail_urban" oneway="1"/>
    <type id="railway.tram" priority="15" numLanes="1" speed="13.89" allow="tram" oneway="1"/>

    <edge id=":1702929459_0" function="internal">
        <lane id=":1702929459_0_0" index="0" disallow="tram rail_urban rail rail_electric ship" speed="13.89" length="4.82" shape="275.12,4013.32 273.65,4013.50 272.80,4013.14 272.57,4012.24 272.98,4010.81"/>
    </edge>
    <edge id=":1702929542_0" function="internal">
        <lane id=":1702929542_0_0" index="0" disallow="tram rail_urban rail rail_electric ship" speed="13.89" length="4.82" shape="408.06,3895.17 409.54,3894.99 410.39,3895.35 410.61,3896.24 410.21,3897.67"/>
    </edge>
    <edge id=":1702929594_0" function="internal">
        <lane id=":1702929594_0_0" index="0" allow="delivery bicycle pedestrian" speed="5.56" length="6.03" shape="538.08,3840.69 535.17,3835.40"/>
    </edge>
    <edge id=":1702929594_1" function="internal">
        <lane id=":1702929594_1_0" index="0" allow="delivery bicycle pedestrian" speed="5.56" length="4.82" shape="538.08,3840.69 538.23,3839.21 538.77,3838.46 539.69,3838.44 541.00,3839.15"/>
    </edge>
    <edge id=":1702929594_2" function="internal">
        <lane id=":1702929594_2_0" index="0" allow="delivery bicycle pedestrian" speed="5.56" length="5.19" shape="542.61,3835.07 541.31,3835.74 540.61,3836.64 540.51,3837.78 541.00,3839.15"/>
    </edge>
    <edge id=":1702929594_3" function="internal">
        <lane id=":1702929594_3_0" index="0" allow="delivery bicycle pedestrian" speed="5.56" length="7.83" shape="542.61,3835.07 539.76,3835.91 537.57,3836.25 536.04,3836.08 535.17,3835.40"/>
    </edge>
    <edge id=":1702929594_4" function="internal">
        <lane id=":1702929594_4_0" index="0" allow="delivery bicycle pedestrian" speed="5.56" length="6.18" shape="538.02,3833.74 541.00,3839.15"/>
    </edge>
    <edge id=":1702929594_5" function="internal">
        <lane id=":1702929594_5_0" index="0" allow="delivery bicycle pedestrian" speed="5.56" length="4.82" shape="538.02,3833.74 537.93,3835.22 537.43,3835.99 536.51,3836.05 535.17,3835.40"/>
    </edge>
    <edge id=":1702929675_0" function="internal">
        <lane id=":1702929675_0_0" index="0" allow="delivery bicycle pedestrian" speed="5.56" length="6.03" shape="514.39,3799.84 511.26,3794.69"/>
    </edge>
    <edge id=":1702929675_1" function="internal">
        <lane id=":1702929675_1_0" index="0" allow="delivery bicycle pedestrian" speed="5.56" length="7.88" shape="514.39,3799.84 514.04,3798.45 514.59,3797.00 516.04,3795.50 518.38,3793.94"/>
    </edge>
    <edge id=":1702929675_2" function="internal">
        <lane id=":1702929675_2_0" index="0" allow="delivery bicycle pedestrian" speed="5.56" length="4.82" shape="514.39,3799.84 514.48,3798.35 514.99,3797.58 515.91,3797.52 517.24,3798.17"/>
    </edge>
    <edge id=":1702929675_3" function="internal">
        <lane id=":1702929675_3_0" index="0" allow="delivery bicycle pedestrian" speed="5.56" length="5.02" shape="514.05,3792.92 514.93,3793.95 515.94,3794.46 517.10,3794.45 518.38,3793.94"/>
    </edge>
    <edge id=":1702929675_4" function="internal">
        <lane id=":1702929675_4_0" index="0" allow="delivery bicycle pedestrian" speed="5.56" length="6.14" shape="514.05,3792.92 517.24,3798.17"/>
    </edge>
    <edge id=":1702929675_5" function="internal">
        <lane id=":1702929675_5_0" index="0" allow="delivery bicycle pedestrian" speed="5.56" length="4.82" shape="514.05,3792.92 514.02,3794.41 513.54,3795.20 512.62,3795.29 511.26,3794.69"/>
    </edge>
    <edge id=":1702929742_0" function="internal">
        <lane id=":1702929742_0_0" index="0" allow="delivery bicycle pedestrian" speed="5.56" length="6.11" shape="568.00,3762.15 571.42,3767.22"/>
    </edge>
    <edge id=":1702929742_1" function="internal">
        <lane id=":1702929742_1_0" index="0" allow="delivery bicycle pedestrian" speed="5.56" length="5.08" shape="566.94,3766.41 568.25,3765.87 569.44,3765.83 570.49,3766.28 571.42,3767.22"/>
    </edge>
    <edge id=":1702929763_0" function="internal">
        <lane id=":1702929763_0_0" index="0" allow="delivery bicycle pedestrian" speed="5.56" length="7.60" shape="666.88,3760.61 668.08,3762.42 669.51,3763.41 671.18,3763.60 673.08,3762.98"/>
    </edge>
    <edge id=":1702929763_1" function="internal">
        <lane id=":1702929763_1_0" index="0" allow="delivery bicycle pedestrian" speed="5.56" length="9.27" shape="666.88,3760.61 668.12,3763.05 669.21,3764.62 670.67,3765.84 673.02,3767.21"/>
    </edge>
    <edge id=":1702929763_2" function="internal">
        <lane id=":1702929763_2_0" index="0" allow="delivery bicycle pedestrian" speed="5.56" length="9.20" shape="664.26,3763.85 666.90,3764.45 668.80,3764.57 670.64,3764.11 673.08,3762.98"/>
    </edge>
    <edge id=":1702929763_3" function="internal">
        <lane id=":1702929763_3_0" index="0" allow="delivery bicycle pedestrian" speed="5.56" length="9.43" shape="664.26,3763.85 666.97,3764.54 668.80,3765.11 670.55,3765.89 673.02,3767.21"/>
    </edge>
    <edge id=":1702929838_0" function="internal">
        <lane id=":1702929838_0_0" index="0" allow="delivery bicycle pedestrian" speed="5.56" length="5.09" shape="494.89,3640.78 493.75,3641.62 493.19,3642.61 493.20,3643.74 493.78,3645.03"/>
    </edge>
    <edge id=":1702929838_1" function="internal">
        <lane id=":1702929838_1_0" index="0" allow="delivery bicycle pedestrian" speed="5.56" length="5.99" shape="494.89,3640.78 493.33,3641.64 492.23,3642.18 491.06,3642.54 489.32,3642.83"/>
    </edge>
    <edge id=":1702929838_2" function="internal">
        <lane id=":1702929838_2_0" index="0" allow="delivery bicycle pedestrian" speed="5.56" length="4.82" shape="494.89,3640.78 493.41,3640.64 492.65,3640.11 492.62,3639.19 493.32,3637.88"/>
    </edge>
    <edge id=":1702929838_3" function="internal">
        <lane id=":1702929838_3_0" index="0" allow="delivery bicycle pedestrian" speed="5.56" length="4.80" shape="488.88,3639.56 490.27,3639.32 491.20,3639.02 492.07,3638.57 493.32,3637.88"/>
    </edge>
    <edge id=":1702929838_4" function="internal">
        <lane id=":1702929838_4_0" index="0" allow="delivery bicycle pedestrian" speed="5.56" length="7.49" shape="488.88,3639.56 489.68,3639.83 490.76,3640.84 492.13,3642.57 493.78,3645.03"/>
    </edge>
    <edge id=":1702929838_5" function="internal">
        <lane id=":1702929838_5_0" index="0" allow="delivery bicycle pedestrian" speed="5.56" length="4.82" shape="488.88,3639.56 490.21,3640.21 490.73,3640.97 490.44,3641.84 489.32,3642.83"/>
    </edge>
    <edge id=":1702929859_0" function="internal">
        <lane id=":1702929859_0_0" index="0" disallow="tram rail_urban rail rail_electric ship" speed="13.89" length="5.04" shape="869.00,3635.08 868.39,3633.83 867.54,3633.07 866.43,3632.81 865.08,3633.05"/>
    </edge>
    <edge id=":1702929859_1" function="internal">
        <lane id=":1702929859_1_0" index="0" disallow="tram rail_urban rail rail_electric ship" speed="13.89" length="9.75" shape="869.00,3635.08 866.23,3625.73"/>
    </edge>
    <edge id=":1702929859_2" function="internal">
        <lane id=":1702929859_2_0" index="0" disallow="tram rail_urban rail rail_electric ship" speed="13.89" length="10.46" shape="869.00,3635.08 868.52,3632.26 869.07,3629.98 870.64,3628.22 873.26,3626.98"/>
    </edge>
    <edge id=":1702929859_3" function="internal">
        <lane id=":1702929859_3_0" index="0" disallow="tram rail_urban rail rail_electric ship" speed="13.89" length="4.82" shape="869.00,3635.08 869.41,3633.64 870.06,3633.00 870.97,3633.13 872.14,3634.05"/>
    </edge>
    <edge id=":1702929859_4" function="internal">
        <lane id=":1702929859_4_0" index="0" disallow="tram rail_urban rail rail_electric ship" speed="13.89" length="5.08" shape="874.23,3630.14 872.96,3630.74 872.18,3631.59 871.91,3632.70 872.14,3634.05"/>
    </edge>
    <edge id=":1702929859_5" function="internal">
        <lane id=":1702929859_5_0" index="0" disallow="tram rail_urban rail rail_electric ship" speed="13.89" length="9.60" shape="874.23,3630.14 865.08,3633.05"/>
    </edge>
    <edge id=":1702929859_6" function="internal">
        <lane id=":1702929859_6_0" index="0" disallow="tram rail_urban rail rail_electric ship" speed="13.89" length="5.26" shape="874.23,3630.14 871.37,3630.59 869.09,3630.01"/>
    </edge>
    <edge id=":1702929859_7" function="internal">
        <lane id=":1702929859_7_0" index="0" disallow="tram rail_urban rail rail_electric ship" speed="13.89" length="2.41" shape="874.23,3630.14 872.81,3629.71 872.17,3629.05"/>
    </edge>
    <edge id=":1702929859_16" function="internal">
        <lane id=":1702929859_16_0" index="0" speed="13.89" length="5.26" shape="869.09,3630.01 867.37,3628.39 866.23,3625.73"/>
    </edge>
    <edge id=":1702929859_17" function="internal">
        <lane id=":1702929859_17_0" index="0" speed="13.89" length="2.41" shape="872.17,3629.05 872.32,3628.14 873.26,3626.98"/>
    </edge>
    <edge id=":1702929859_8" function="internal">
        <lane id=":1702929859_8_0" index="0" disallow="tram rail_urban rail rail_electric ship" speed="13.89" length="5.05" shape="869.41,3624.87 869.96,3626.15 870.79,3626.92 871.88,3627.20 873.26,3626.98"/>
    </edge>
    <edge id=":1702929859_9" function="internal">
        <lane id=":1702929859_9_0" index="0" disallow="tram rail_urban rail rail_electric ship" speed="13.89" length="9.58" shape="869.41,3624.87 872.14,3634.05"/>
    </edge>
    <edge id=":1702929859_10" function="internal">
        <lane id=":1702929859_10_0" index="0" disallow="tram rail_urban rail rail_electric ship" speed="13.89" length="10.44" shape="869.41,3624.87 869.77,3627.71 869.17,3630.02 867.61,3631.80 865.08,3633.05"/>
    </edge>
    <edge id=":1702929859_11" function="internal">
        <lane id=":1702929859_11_0" index="0" disallow="tram rail_urban rail rail_electric ship" speed="13.89" length="4.82" shape="869.41,3624.87 868.94,3626.28 868.25,3626.89 867.35,3626.71 866.23,3625.73"/>
    </edge>
    <edge id=":1702929859_12" function="internal">
        <lane id=":1702929859_12_0" index="0" disallow="tram rail_urban rail rail_electric ship" speed="13.89" length="5.31" shape="864.06,3629.91 865.33,3629.28 866.12,3628.37 866.41,3627.19 866.23,3625.73"/>
    </edge>
    <edge id=":1702929859_13" function="internal">
        <lane id=":1702929859_13_0" index="0" disallow="tram rail_urban rail rail_electric ship" speed="13.89" length="9.65" shape="864.06,3629.91 873.26,3626.98"/>
    </edge>
    <edge id=":1702929859_14" function="internal">
        <lane id=":1702929859_14_0" index="0" disallow="tram rail_urban rail rail_electric ship" speed="13.89" length="5.31" shape="864.06,3629.91 866.85,3629.42 869.12,3629.95 869.23,3630.05"/>
    </edge>
    <edge id=":1702929859_15" function="internal">
        <lane id=":1702929859_15_0" index="0" disallow="tram rail_urban rail rail_electric ship" speed="13.89" length="2.41" shape="864.06,3629.91 865.49,3630.31 866.14,3630.97"/>
    </edge>
    <edge id=":1702929859_18" function="internal">
        <lane id=":1702929859_18_0" index="0" speed="13.89" length="5.05" shape="869.23,3630.05 870.89,3631.50 872.14,3634.05"/>
    </edge>
    <edge id=":1702929859_19" function="internal">
        <lane id=":1702929859_19_0" index="0" speed="13.89" length="2.41" shape="866.14,3630.97 866.00,3631.88 865.08,3633.05"/>
    </edge>
    <edge id=":1702929885_0" function="internal">
        <lane id=":1702929885_0_0" index="0" disallow="tram rail_urban rail rail_electric ship" speed="13.89" length="5.00" shape="942.74,3612.13 942.15,3610.89 941.31,3610.13 940.22,3609.87 938.86,3610.08"/>
    </edge>
    <edge id=":1702929885_1" function="internal">
        <lane id=":1702929885_1_0" index="0" disallow="tram rail_urban rail rail_electric ship" speed="13.89" length="9.61" shape="942.74,3612.13 940.01,3602.92"/>
    </edge>
    <edge id=":1702929885_2" function="internal">
        <lane id=":1702929885_2_0" index="0" disallow="tram rail_urban rail rail_electric ship" speed="13.89" length="10.38" shape="942.74,3612.13 942.30,3609.33 942.87,3607.06 944.45,3605.32 947.04,3604.11"/>
    </edge>
    <edge id=":1702929885_3" function="internal">
        <lane id=":1702929885_3_0" index="0" disallow="tram rail_urban rail rail_electric ship" speed="13.89" length="4.82" shape="942.74,3612.13 943.16,3610.70 943.83,3610.07 944.74,3610.22 945.89,3611.16"/>
    </edge>
    <edge id=":1702929885_4" function="internal">
        <lane id=":1702929885_4_0" index="0" disallow="tram rail_urban rail rail_electric ship" speed="13.89" length="5.05" shape="948.00,3607.27 946.74,3607.86 945.96,3608.70 945.68,3609.80 945.89,3611.16"/>
    </edge>
    <edge id=":1702929885_5" function="internal">
        <lane id=":1702929885_5_0" index="0" disallow="tram rail_urban rail rail_electric ship" speed="13.89" length="9.56" shape="948.00,3607.27 938.86,3610.08"/>
    </edge>
    <edge id=":1702929885_6" function="internal">
        <lane id=":1702929885_6_0" index="0" disallow="tram rail_urban rail rail_electric ship" speed="13.89" length="5.21" shape="948.00,3607.27 945.17,3607.71 942.90,3607.13"/>
    </edge>
    <edge id=":1702929885_7" function="internal">
        <lane id=":1702929885_7_0" index="0" disallow="tram rail_urban rail rail_electric ship" speed="13.89" length="2.41" shape="948.00,3607.27 946.58,3606.84 945.94,3606.17"/>
    </edge>
    <edge id=":1702929885_16" function="internal">
        <lane id=":1702929885_16_0" index="0" speed="13.89" length="5.21" shape="942.90,3607.13 941.18,3605.53 940.01,3602.92"/>
    </edge>
    <edge id=":1702929885_17" function="internal">
        <lane id=":1702929885_17_0" index="0" speed="13.89" length="2.41" shape="945.94,3606.17 946.10,3605.26 947.04,3604.11"/>
    </edge>
    <edge id=":1702929885_8" function="internal">
        <lane id=":1702929885_8_0" index="0" disallow="tram rail_urban rail rail_electric ship" speed="13.89" length="5.02" shape="943.19,3602.01 943.75,3603.28 944.58,3604.04 945.67,3604.32 947.04,3604.11"/>
    </edge>
    <edge id=":1702929885_9" function="internal">
        <lane id=":1702929885_9_0" index="0" disallow="tram rail_urban rail rail_electric ship" speed="13.89" length="9.54" shape="943.19,3602.01 945.89,3611.16"/>
    </edge>
    <edge id=":1702929885_10" function="internal">
        <lane id=":1702929885_10_0" index="0" disallow="tram rail_urban rail rail_electric ship" speed="13.89" length="10.38" shape="943.19,3602.01 943.58,3604.84 942.98,3607.12 941.41,3608.87 938.86,3610.08"/>
    </edge>
    <edge id=":1702929885_11" function="internal">
        <lane id=":1702929885_11_0" index="0" disallow="tram rail_urban rail rail_electric ship" speed="13.89" length="4.82" shape="943.19,3602.01 942.73,3603.43 942.05,3604.05 941.14,3603.88 940.01,3602.92"/>
    </edge>
    <edge id=":1702929885_12" function="internal">
        <lane id=":1702929885_12_0" index="0" disallow="tram rail_urban rail rail_electric ship" speed="13.89" length="5.15" shape="937.88,3606.93 939.14,3606.33 939.92,3605.46 940.21,3604.32 940.01,3602.92"/>
    </edge>
    <edge id=":1702929885_13" function="internal">
        <lane id=":1702929885_13_0" index="0" disallow="tram rail_urban rail rail_electric ship" speed="13.89" length="9.58" shape="937.88,3606.93 947.04,3604.11"/>
    </edge>
    <edge id=":1702929885_14" function="internal">
        <lane id=":1702929885_14_0" index="0" disallow="tram rail_urban rail rail_electric ship" speed="13.89" length="5.29" shape="937.88,3606.93 940.68,3606.48 942.95,3607.04 943.04,3607.12"/>
    </edge>
    <edge id=":1702929885_15" function="internal">
        <lane id=":1702929885_15_0" index="0" disallow="tram rail_urban rail rail_electric ship" speed="13.89" length="2.41" shape="937.88,3606.93 939.31,3607.35 939.95,3608.02"/>
    </edge>
    <edge id=":1702929885_18" function="internal">
        <lane id=":1702929885_18_0" index="0" speed="13.89" length="5.04" shape="943.04,3607.12 944.68,3608.60 945.89,3611.16"/>
    </edge>
    <edge id=":1702929885_19" function="internal">
        <lane id=":1702929885_19_0" index="0" speed="13.89" length="2.41" shape="939.95,3608.02 939.80,3608.93 938.86,3610.08"/>
    </edge>
    <edge id=":1702930081_0" function="internal">
        <lane id=":1702930081_0_0" index="0" disallow="tram rail_urban rail rail_electric ship" speed="13.89" length="4.82" shape="775.55,3320.52 775.96,3319.09 776.61,3318.45 777.53,3318.58 778.69,3319.51"/>
    </edge>
    <edge id=":1702930091_0" function="internal">
        <lane id=":1702930091_0_0" index="0" disallow="tram rail_urban rail rail_electric ship" speed="13.89" length="4.82" shape="843.32,3297.58 843.69,3296.14 844.33,3295.48 845.25,3295.60 846.43,3296.50"/>
    </edge>
    <edge id=":1702930134_0" function="internal">
        <lane id=":1702930134_0_0" index="0" disallow="tram rail_urban rail rail_electric ship" speed="13.89" length="4.82" shape="917.96,3276.45 918.35,3275.02 919.01,3274.37 919.92,3274.50 921.09,3275.42"/>
    </edge>
    <edge id=":1702930424_0" function="internal">
        <lane id=":1702930424_0_0" index="0" allow="delivery bicycle pedestrian" speed="5.56" length="4.82" shape="16.53,2942.92 16.59,2941.43 17.09,2940.65 18.01,2940.58 19.35,2941.21"/>
    </edge>
    <edge id=":1702930516_0" function="internal">
        <lane id=":1702930516_0_0" index="0" disallow="tram rail_urban rail rail_electric ship" speed="13.89" length="4.82" shape="401.53,2718.64 401.81,2717.18 402.41,2716.48 403.33,2716.53 404.57,2717.35"/>
    </edge>
    <edge id=":1702963350_0" function="internal">
        <lane id=":1702963350_0_0" index="0" disallow="tram rail_urban rail rail_electric ship" speed="13.89" length="4.82" shape="1198.61,4359.77 1198.06,4361.15 1197.35,4361.73 1196.45,4361.50 1195.38,4360.47"/>
    </edge>
    <edge id=":1702963395_0" function="internal">
        <lane id=":1702963395_0_0" index="0" disallow="tram rail_urban rail rail_electric ship" speed="13.89" length="4.82" shape="937.93,4182.32 937.60,4183.77 936.97,4184.45 936.06,4184.36 934.84,4183.49"/>
    </edge>
    <edge id=":1702963416_0" function="internal">
        <lane id=":1702963416_0_0" index="0" disallow="tram rail_urban rail rail_electric ship" speed="20.84" length="5.17" shape="1023.82,3772.88 1023.19,3771.58 1022.31,3770.86 1021.18,3770.71 1019.80,3771.14"/>
    </edge>
    <edge id=":1702963416_1" function="internal">
        <lane id=":1702963416_1_0" index="0" disallow="tram rail_urban rail rail_electric ship" speed="13.89" length="4.82" shape="1023.82,3772.88 1024.23,3771.45 1024.89,3770.80 1025.80,3770.94 1026.97,3771.87"/>
    </edge>
    <edge id=":1702963416_2" function="internal">
        <lane id=":1702963416_2_0" index="0" disallow="tram rail_urban rail rail_electric ship" speed="20.84" length="5.62" shape="1028.38,3766.96 1027.32,3767.75 1026.74,3768.83 1026.62,3770.20 1026.97,3771.87"/>
    </edge>
    <edge id=":1702963416_3" function="internal">
        <lane id=":1702963416_3_0" index="0" disallow="tram rail_urban rail rail_electric ship" speed="27.78" length="9.51" shape="1028.38,3766.96 1019.80,3771.14"/>
        <lane id=":1702963416_3_1" index="1" disallow="tram rail_urban rail rail_electric ship" speed="27.78" length="9.51" shape="1026.90,3764.01 1018.38,3768.16"/>
    </edge>
    <edge id=":1702963419_0" function="internal">
        <lane id=":1702963419_0_0" index="0" allow="delivery bicycle pedestrian" speed="5.56" length="8.81" shape="936.99,3915.03 928.73,3918.09"/>
    </edge>
    <edge id=":1702963419_1" function="internal">
        <lane id=":1702963419_1_0" index="0" disallow="tram rail_urban rail rail_electric ship" speed="9.73" length="10.34" shape="936.99,3915.03 934.32,3915.59 932.04,3915.14 930.14,3913.68 928.64,3911.21"/>
    </edge>
    <edge id=":1702963419_2" function="internal">
        <lane id=":1702963419_2_0" index="0" allow="delivery bicycle pedestrian" speed="5.56" length="4.82" shape="936.99,3915.03 935.55,3914.69 934.87,3914.06 934.97,3913.14 935.85,3911.94"/>
    </edge>
    <edge id=":1702963419_3" function="internal">
        <lane id=":1702963419_3_0" index="0" allow="delivery bicycle pedestrian" speed="9.73" length="5.24" shape="931.67,3909.88 932.44,3911.17 933.39,3911.95 934.53,3912.20 935.85,3911.94"/>
    </edge>
    <edge id=":1702963419_4" function="internal">
        <lane id=":1702963419_4_0" index="0" allow="delivery bicycle pedestrian" speed="9.73" length="10.07" shape="931.67,3909.88 932.49,3912.69 932.28,3915.00 931.02,3916.80 928.73,3918.09"/>
    </edge>
    <edge id=":1702963419_5" function="internal">
        <lane id=":1702963419_5_0" index="0" disallow="tram rail_urban rail rail_electric ship" speed="13.89" length="4.82" shape="931.67,3909.88 931.41,3911.35 930.82,3912.06 929.90,3912.01 928.64,3911.21"/>
    </edge>
    <edge id=":1702963419_6" function="internal">
        <lane id=":1702963419_6_0" index="0" disallow="tram rail_urban rail rail_electric ship" speed="9.73" length="4.53" shape="927.59,3915.00 928.53,3914.44 929.02,3913.62 929.06,3912.54 928.64,3911.21"/>
    </edge>
    <edge id=":1702963419_7" function="internal">
        <lane id=":1702963419_7_0" index="0" allow="delivery bicycle pedestrian" speed="5.56" length="8.81" shape="927.59,3915.00 935.85,3911.94"/>
    </edge>
    <edge id=":1702963419_8" function="internal">
        <lane id=":1702963419_8_0" index="0" allow="delivery bicycle pedestrian" speed="5.56" length="4.82" shape="927.59,3915.00 929.03,3915.34 929.71,3915.97 929.61,3916.89 928.73,3918.09"/>
    </edge>
    <edge id=":1702963421_0" function="internal">
        <lane id=":1702963421_0_0" index="0" disallow="tram rail_urban rail rail_electric ship" speed="20.84" length="5.09" shape="809.61,3881.08 808.91,3879.86 807.99,3879.20 806.86,3879.08 805.52,3879.51"/>
    </edge>
    <edge id=":1702963421_1" function="internal">
        <lane id=":1702963421_1_0" index="0" disallow="tram rail_urban rail rail_electric ship" speed="13.89" length="4.82" shape="809.61,3881.08 809.92,3879.63 810.53,3878.93 811.45,3879.01 812.68,3879.85"/>
    </edge>
    <edge id=":1702963421_2" function="internal">
        <lane id=":1702963421_2_0" index="0" disallow="tram rail_urban rail rail_electric ship" speed="20.84" length="5.66" shape="814.52,3875.17 813.23,3876.02 812.49,3877.08 812.31,3878.36 812.68,3879.85"/>
    </edge>
    <edge id=":1702963421_3" function="internal">
        <lane id=":1702963421_3_0" index="0" disallow="tram rail_urban rail rail_electric ship" speed="27.78" length="10.02" shape="814.52,3875.17 805.52,3879.51"/>
        <lane id=":1702963421_3_1" index="1" disallow="tram rail_urban rail rail_electric ship" speed="27.78" length="10.02" shape="813.10,3872.19 804.06,3876.55"/>
    </edge>
    <edge id=":1702963421_5" function="internal">
        <lane id=":1702963421_5_0" index="0" disallow="tram rail_urban rail rail_electric ship" speed="18.05" length="10.67" shape="809.52,3869.82 809.67,3872.84 810.32,3874.97 811.37,3877.03 812.68,3879.85"/>
    </edge>
    <edge id=":1702963421_6" function="internal">
        <lane id=":1702963421_6_0" index="0" disallow="tram rail_urban rail rail_electric ship" speed="25.00" length="9.10" shape="809.52,3869.82 809.12,3871.79 808.07,3873.57 806.39,3875.16 804.06,3876.55"/>
    </edge>
    <edge id=":1702963423_0" function="internal">
        <lane id=":1702963423_0_0" index="0" disallow="tram rail_urban rail rail_electric ship" speed="20.84" length="5.04" shape="897.20,3839.38 896.47,3838.20 895.54,3837.56 894.41,3837.44 893.09,3837.85"/>
    </edge>
    <edge id=":1702963423_1" function="internal">
        <lane id=":1702963423_1_0" index="0" disallow="tram rail_urban rail rail_electric ship" speed="13.89" length="4.82" shape="897.20,3839.38 897.46,3837.92 898.05,3837.21 898.97,3837.26 900.22,3838.06"/>
    </edge>
    <edge id=":1702963423_2" function="internal">
        <lane id=":1702963423_2_0" index="0" disallow="tram rail_urban rail rail_electric ship" speed="20.84" length="5.27" shape="901.34,3833.43 900.34,3834.29 899.82,3835.34 899.78,3836.60 900.22,3838.06"/>
    </edge>
    <edge id=":1702963423_3" function="internal">
        <lane id=":1702963423_3_0" index="0" disallow="tram rail_urban rail rail_electric ship" speed="27.78" length="9.19" shape="901.34,3833.43 893.09,3837.85"/>
        <lane id=":1702963423_3_1" index="1" disallow="tram rail_urban rail rail_electric ship" speed="27.78" length="9.19" shape="899.63,3830.61 891.67,3834.87"/>
    </edge>
    <edge id=":1892628960_0" function="internal">
        <lane id=":1892628960_0_0" index="0" disallow="tram rail_urban rail rail_electric ship" speed="27.78" length="0.25" shape="1359.60,3598.82 1359.78,3598.76"/>
        <lane id=":1892628960_0_1" index="1" disallow="tram rail_urban rail rail_electric ship" speed="27.78" length="0.25" shape="1360.54,3601.98 1360.83,3601.89"/>
    </edge>