<?xml version="1.0" encoding="UTF-8"?>

<!-- generated on Mon Oct 23 08:11:44 2017 by SUMO netconvert Version 0.28.0
<?xml version="1.0" encoding="UTF-8"?>

<configuration xmlns:xsi="http://www.w3.org/2001/XMLSchema-instance" xsi:noNamespaceSchemaLocation="http://sumo.dlr.de/xsd/netconvertConfiguration.xsd">

    <input>
        <osm-files value="OpenStreetMap/map_uece.osm"/>
    </input>

    <output>
        <output-file value="map_uece.net.xml"/>
    </output>

    <projection>
        <proj.utm value="true"/>
    </projection>

</configuration>
-->

<net version="0.27" xmlns:xsi="http://www.w3.org/2001/XMLSchema-instance" xsi:noNamespaceSchemaLocation="http://sumo.dlr.de/xsd/net_file.xsd">

    <location netOffset="-549019.09,419639.71" convBoundary="0.00,0.00,1114.63,1551.22" origBoundary="-38.558526,-3.796441,-38.548485,-3.782408" projParameter="+proj=utm +zone=24 +ellps=WGS84 +datum=WGS84 +units=m +no_defs"/>

    <type id="highway.bridleway" priority="1" numLanes="1" speed="2.78" allow="pedestrian" oneway="1" width="2.00"/>
    <type id="highway.bus_guideway" priority="1" numLanes="1" speed="8.33" allow="bus" oneway="1"/>
    <type id="highway.cycleway" priority="1" numLanes="1" speed="5.56" allow="bicycle" oneway="0" width="1.00"/>
    <type id="highway.footway" priority="1" numLanes="1" speed="2.78" allow="pedestrian" oneway="1" width="2.00"/>
    <type id="highway.ford" priority="1" numLanes="1" speed="2.78" allow="army" oneway="0"/>
    <type id="highway.living_street" priority="3" numLanes="1" speed="2.78" disallow="tram rail_urban rail rail_electric ship" oneway="0"/>
    <type id="highway.motorway" priority="13" numLanes="2" speed="44.44" allow="private emergency authority army vip passenger hov taxi bus coach delivery truck trailer motorcycle evehicle custom1 custom2" oneway="1"/>
    <type id="highway.motorway_link" priority="12" numLanes="1" speed="22.22" allow="private emergency authority army vip passenger hov taxi bus coach delivery truck trailer motorcycle evehicle custom1 custom2" oneway="1"/>
    <type id="highway.path" priority="1" numLanes="1" speed="2.78" allow="bicycle pedestrian" oneway="1" width="2.00"/>
    <type id="highway.pedestrian" priority="1" numLanes="1" speed="2.78" allow="pedestrian" oneway="1" width="2.00"/>
    <type id="highway.primary" priority="9" numLanes="2" speed="27.78" disallow="tram rail_urban rail rail_electric ship" oneway="0"/>
    <type id="highway.primary_link" priority="8" numLanes="1" speed="22.22" disallow="tram rail_urban rail rail_electric ship" oneway="0"/>
    <type id="highway.raceway" priority="14" numLanes="2" speed="83.33" allow="vip" oneway="0"/>
    <type id="highway.residential" priority="4" numLanes="1" speed="13.89" disallow="tram rail_urban rail rail_electric ship" oneway="0"/>
    <type id="highway.secondary" priority="7" numLanes="2" speed="27.78" disallow="tram rail_urban rail rail_electric ship" oneway="0"/>
    <type id="highway.secondary_link" priority="6" numLanes="1" speed="22.22" disallow="tram rail_urban rail rail_electric ship" oneway="0"/>
    <type id="highway.service" priority="2" numLanes="1" speed="5.56" allow="delivery bicycle pedestrian" oneway="0"/>
    <type id="highway.services" priority="1" numLanes="1" speed="8.33" disallow="tram rail_urban rail rail_electric ship" oneway="0"/>
    <type id="highway.stairs" priority="1" numLanes="1" speed="1.39" allow="pedestrian" oneway="1" width="2.00"/>
    <type id="highway.step" priority="1" numLanes="1" speed="1.39" allow="pedestrian" oneway="1" width="2.00"/>
    <type id="highway.steps" priority="1" numLanes="1" speed="1.39" allow="pedestrian" oneway="1" width="2.00"/>
    <type id="highway.tertiary" priority="6" numLanes="1" speed="22.22" disallow="tram rail_urban rail rail_electric ship" oneway="0"/>
    <type id="highway.tertiary_link" priority="5" numLanes="1" speed="22.22" disallow="tram rail_urban rail rail_electric ship" oneway="0"/>
    <type id="highway.track" priority="1" numLanes="1" speed="5.56" disallow="tram rail_urban rail rail_electric ship" oneway="0"/>
    <type id="highway.trunk" priority="11" numLanes="2" speed="27.78" disallow="tram rail_urban rail rail_electric bicycle pedestrian ship" oneway="0"/>
    <type id="highway.trunk_link" priority="10" numLanes="1" speed="22.22" disallow="tram rail_urban rail rail_electric bicycle pedestrian ship" oneway="0"/>
    <type id="highway.unclassified" priority="5" numLanes="1" speed="13.89" disallow="tram rail_urban rail rail_electric ship" oneway="0"/>
    <type id="highway.unsurfaced" priority="1" numLanes="1" speed="8.33" disallow="tram rail_urban rail rail_electric ship" oneway="0"/>
    <type id="railway.light_rail" priority="15" numLanes="1" speed="27.78" allow="rail_urban" oneway="1"/>
    <type id="railway.preserved" priority="15" numLanes="1" speed="27.78" allow="rail" oneway="1"/>
    <type id="railway.rail" priority="15" numLanes="1" speed="83.33" allow="rail rail_electric" oneway="1"/>
    <type id="railway.subway" priority="15" numLanes="1" speed="27.78" allow="rail_urban" oneway="1"/>
    <type id="railway.tram" priority="15" numLanes="1" speed="13.89" allow="tram" oneway="1"/>

    <edge id=":1702929253_0" function="internal">
        <lane id=":1702929253_0_0" index="0" disallow="tram rail_urban rail rail_electric ship" speed="13.89" length="4.82" shape="1.12,1460.16 -0.35,1460.40 -1.21,1460.07 -1.47,1459.19 -1.12,1457.74"/>
    </edge>
    <edge id=":1702929407_0" function="internal">
        <lane id=":1702929407_0_0" index="0" disallow="tram rail_urban rail rail_electric ship" speed="13.89" length="4.82" shape="338.94,1352.81 337.46,1352.94 336.62,1352.56 336.43,1351.66 336.87,1350.24"/>
    </edge>
    <edge id=":1702929459_0" function="internal">
        <lane id=":1702929459_0_0" index="0" disallow="tram rail_urban rail rail_electric ship" speed="13.89" length="4.82" shape="307.97,1295.32 306.50,1295.50 305.65,1295.14 305.42,1294.25 305.83,1292.82"/>
    </edge>
    <edge id=":1702929487_0" function="internal">
        <lane id=":1702929487_0_0" index="0" disallow="tram rail_urban rail rail_electric ship" speed="13.89" length="4.82" shape="476.12,1238.06 477.61,1237.93 478.44,1238.31 478.64,1239.21 478.19,1240.63"/>
    </edge>
    <edge id=":1702929542_0" function="internal">
        <lane id=":1702929542_0_0" index="0" disallow="tram rail_urban rail rail_electric ship" speed="13.89" length="4.82" shape="440.91,1177.17 442.39,1176.99 443.24,1177.35 443.46,1178.25 443.06,1179.68"/>
    </edge>
    <edge id=":1702929549_0" function="internal">
        <lane id=":1702929549_0_0" index="0" disallow="tram rail_urban rail rail_electric ship" speed="13.89" length="9.92" shape="390.40,1132.92 383.04,1139.58"/>
    </edge>
    <edge id=":1702929549_1" function="internal">
        <lane id=":1702929549_1_0" index="0" disallow="tram rail_urban rail rail_electric ship" speed="13.89" length="5.79" shape="390.40,1132.92 387.72,1134.82 385.25,1135.24"/>
    </edge>
    <edge id=":1702929549_2" function="internal">
        <lane id=":1702929549_2_0" index="0" disallow="tram rail_urban rail rail_electric ship" speed="13.89" length="2.41" shape="390.40,1132.92 388.93,1133.18 388.06,1132.86"/>
    </edge>
    <edge id=":1702929549_9" function="internal">
        <lane id=":1702929549_9_0" index="0" speed="13.89" length="5.79" shape="385.25,1135.24 382.99,1134.16 380.95,1131.59"/>
    </edge>
    <edge id=":1702929549_10" function="internal">
        <lane id=":1702929549_10_0" index="0" speed="13.89" length="2.41" shape="388.06,1132.86 387.79,1131.98 388.12,1130.53"/>
    </edge>
    <edge id=":1702929549_3" function="internal">
        <lane id=":1702929549_3_0" index="0" disallow="tram rail_urban rail rail_electric ship" speed="13.89" length="5.30" shape="383.79,1129.92 384.73,1131.10 385.76,1131.59 386.89,1131.40 388.12,1130.53"/>
    </edge>
    <edge id=":1702929549_4" function="internal">
        <lane id=":1702929549_4_0" index="0" disallow="tram rail_urban rail rail_electric ship" speed="13.89" length="10.65" shape="383.79,1129.92 385.07,1132.78 385.37,1135.35 384.69,1137.61 383.04,1139.58"/>
    </edge>
    <edge id=":1702929549_5" function="internal">
        <lane id=":1702929549_5_0" index="0" disallow="tram rail_urban rail rail_electric ship" speed="13.89" length="4.82" shape="383.79,1129.92 383.71,1131.41 383.20,1132.18 382.28,1132.24 380.95,1131.59"/>
    </edge>
    <edge id=":1702929549_6" function="internal">
        <lane id=":1702929549_6_0" index="0" disallow="tram rail_urban rail rail_electric ship" speed="13.89" length="5.99" shape="380.91,1137.06 381.72,1136.03 382.00,1134.78 381.74,1133.29 380.95,1131.59"/>
    </edge>
    <edge id=":1702929549_7" function="internal">
        <lane id=":1702929549_7_0" index="0" disallow="tram rail_urban rail rail_electric ship" speed="13.89" length="9.73" shape="380.91,1137.06 388.12,1130.53"/>
    </edge>
    <edge id=":1702929549_8" function="internal">
        <lane id=":1702929549_8_0" index="0" disallow="tram rail_urban rail rail_electric ship" speed="13.89" length="2.41" shape="380.91,1137.06 382.38,1136.89 383.23,1137.25"/>
    </edge>
    <edge id=":1702929549_11" function="internal">
        <lane id=":1702929549_11_0" index="0" speed="13.89" length="2.41" shape="383.23,1137.25 383.45,1138.15 383.04,1139.58"/>
    </edge>
    <edge id=":1702929594_0" function="internal">
        <lane id=":1702929594_0_0" index="0" allow="delivery bicycle pedestrian" speed="5.56" length="6.03" shape="570.93,1122.69 568.02,1117.41"/>
    </edge>
    <edge id=":1702929594_1" function="internal">
        <lane id=":1702929594_1_0" index="0" allow="delivery bicycle pedestrian" speed="5.56" length="4.82" shape="570.93,1122.69 571.08,1121.21 571.62,1120.46 572.54,1120.44 573.85,1121.15"/>
    </edge>
    <edge id=":1702929594_2" function="internal">
        <lane id=":1702929594_2_0" index="0" allow="delivery bicycle pedestrian" speed="5.56" length="5.19" shape="575.46,1117.07 574.17,1117.74 573.47,1118.64 573.36,1119.78 573.85,1121.15"/>
    </edge>
    <edge id=":1702929594_3" function="internal">
        <lane id=":1702929594_3_0" index="0" allow="delivery bicycle pedestrian" speed="5.56" length="7.83" shape="575.46,1117.07 572.61,1117.92 570.43,1118.26 568.90,1118.09 568.02,1117.41"/>
    </edge>
    <edge id=":1702929594_4" function="internal">
        <lane id=":1702929594_4_0" index="0" allow="delivery bicycle pedestrian" speed="5.56" length="6.18" shape="570.87,1115.74 573.85,1121.15"/>
    </edge>
    <edge id=":1702929594_5" function="internal">
        <lane id=":1702929594_5_0" index="0" allow="delivery bicycle pedestrian" speed="5.56" length="4.82" shape="570.87,1115.74 570.78,1117.23 570.28,1118.00 569.36,1118.06 568.02,1117.41"/>
    </edge>
    <edge id=":1702929631_0" function="internal">
        <lane id=":1702929631_0_0" index="0" disallow="tram rail_urban rail rail_electric ship" speed="13.89" length="5.30" shape="438.46,1091.94 437.53,1090.76 436.49,1090.26 435.36,1090.45 434.13,1091.32"/>
    </edge>
    <edge id=":1702929631_1" function="internal">
        <lane id=":1702929631_1_0" index="0" disallow="tram rail_urban rail rail_electric ship" speed="13.89" length="9.65" shape="438.46,1091.94 433.70,1083.54"/>
    </edge>
    <edge id=":1702929631_2" function="internal">
        <lane id=":1702929631_2_0" index="0" disallow="tram rail_urban rail rail_electric ship" speed="13.89" length="2.41" shape="438.46,1091.94 438.55,1090.45 439.06,1089.68"/>
    </edge>
    <edge id=":1702929631_9" function="internal">
        <lane id=":1702929631_9_0" index="0" speed="13.89" length="2.41" shape="439.06,1089.68 439.98,1089.62 441.31,1090.28"/>
    </edge>
    <edge id=":1702929631_3" function="internal">
        <lane id=":1702929631_3_0" index="0" disallow="tram rail_urban rail rail_electric ship" speed="13.89" length="9.56" shape="436.60,1081.96 441.31,1090.28"/>
    </edge>
    <edge id=":1702929631_4" function="internal">
        <lane id=":1702929631_4_0" index="0" disallow="tram rail_urban rail rail_electric ship" speed="13.89" length="4.79" shape="436.60,1081.96 437.39,1084.28 437.24,1086.61"/>
    </edge>
    <edge id=":1702929631_5" function="internal">
        <lane id=":1702929631_5_0" index="0" disallow="tram rail_urban rail rail_electric ship" speed="13.89" length="2.41" shape="436.60,1081.96 436.47,1083.44 435.94,1084.20"/>
    </edge>
    <edge id=":1702929631_10" function="internal">
        <lane id=":1702929631_10_0" index="0" speed="13.89" length="5.70" shape="437.24,1086.61 436.16,1088.96 434.13,1091.32"/>
    </edge>
    <edge id=":1702929631_11" function="internal">
        <lane id=":1702929631_11_0" index="0" speed="13.89" length="2.41" shape="435.94,1084.20 435.02,1084.23 433.70,1083.54"/>
    </edge>
    <edge id=":1702929631_6" function="internal">
        <lane id=":1702929631_6_0" index="0" disallow="tram rail_urban rail rail_electric ship" speed="13.89" length="6.14" shape="431.86,1088.93 433.16,1087.47 433.89,1086.09 434.08,1084.78 433.70,1083.54"/>
    </edge>
    <edge id=":1702929631_7" function="internal">
        <lane id=":1702929631_7_0" index="0" disallow="tram rail_urban rail rail_electric ship" speed="13.89" length="11.59" shape="431.86,1088.93 434.54,1087.03 437.01,1086.61 439.27,1087.70 441.31,1090.28"/>
    </edge>
    <edge id=":1702929631_8" function="internal">
        <lane id=":1702929631_8_0" index="0" disallow="tram rail_urban rail rail_electric ship" speed="13.89" length="4.82" shape="431.86,1088.93 433.32,1088.68 434.19,1088.99 434.46,1089.87 434.13,1091.32"/>
    </edge>
    <edge id=":1702929675_0" function="internal">
        <lane id=":1702929675_0_0" index="0" allow="delivery bicycle pedestrian" speed="5.56" length="6.03" shape="547.25,1081.84 544.12,1076.69"/>
    </edge>
    <edge id=":1702929675_1" function="internal">
        <lane id=":1702929675_1_0" index="0" allow="delivery bicycle pedestrian" speed="5.56" length="7.88" shape="547.25,1081.84 546.90,1080.45 547.45,1079.00 548.89,1077.50 551.24,1075.95"/>
    </edge>
    <edge id=":1702929675_2" function="internal">
        <lane id=":1702929675_2_0" index="0" allow="delivery bicycle pedestrian" speed="5.56" length="4.82" shape="547.25,1081.84 547.33,1080.36 547.84,1079.59 548.76,1079.53 550.10,1080.18"/>
    </edge>
    <edge id=":1702929675_3" function="internal">
        <lane id=":1702929675_3_0" index="0" allow="delivery bicycle pedestrian" speed="5.56" length="5.02" shape="546.91,1074.93 547.78,1075.95 548.80,1076.46 549.95,1076.46 551.24,1075.95"/>
    </edge>
    <edge id=":1702929675_4" function="internal">
        <lane id=":1702929675_4_0" index="0" allow="delivery bicycle pedestrian" speed="5.56" length="6.14" shape="546.91,1074.93 550.10,1080.18"/>
    </edge>
    <edge id=":1702929675_5" function="internal">
        <lane id=":1702929675_5_0" index="0" allow="delivery bicycle pedestrian" speed="5.56" length="4.82" shape="546.91,1074.93 546.87,1076.42 546.39,1077.21 545.48,1077.30 544.12,1076.69"/>
    </edge>
    <edge id=":1702929742_0" function="internal">
        <lane id=":1702929742_0_0" index="0" allow="delivery bicycle pedestrian" speed="5.56" length="6.11" shape="600.85,1044.16 604.27,1049.22"/>
    </edge>
    <edge id=":1702929742_1" function="internal">
        <lane id=":1702929742_1_0" index="0" allow="delivery bicycle pedestrian" speed="5.56" length="5.08" shape="599.79,1048.41 601.11,1047.88 602.29,1047.83 603.35,1048.28 604.27,1049.22"/>
    </edge>
    <edge id=":1702929763_0" function="internal">
        <lane id=":1702929763_0_0" index="0" allow="delivery bicycle pedestrian" speed="5.56" length="7.60" shape="699.73,1042.61 700.93,1044.42 702.36,1045.42 704.03,1045.61 705.94,1044.98"/>
    </edge>
    <edge id=":1702929763_1" function="internal">
        <lane id=":1702929763_1_0" index="0" allow="delivery bicycle pedestrian" speed="5.56" length="9.27" shape="699.73,1042.61 700.97,1045.05 702.06,1046.62 703.52,1047.84 705.87,1049.21"/>
    </edge>
    <edge id=":1702929763_2" function="internal">
        <lane id=":1702929763_2_0" index="0" allow="delivery bicycle pedestrian" speed="5.56" length="9.20" shape="697.11,1045.86 699.75,1046.45 701.65,1046.57 703.49,1046.12 705.94,1044.98"/>
    </edge>
    <edge id=":1702929763_3" function="internal">
        <lane id=":1702929763_3_0" index="0" allow="delivery bicycle pedestrian" speed="5.56" length="9.43" shape="697.11,1045.86 699.82,1046.54 701.65,1047.11 703.41,1047.90 705.87,1049.21"/>
    </edge>
    <edge id=":1702929838_0" function="internal">
        <lane id=":1702929838_0_0" index="0" allow="delivery bicycle pedestrian" speed="5.56" length="5.09" shape="527.74,922.79 526.61,923.62 526.04,924.61 526.05,925.75 526.63,927.03"/>
    </edge>
    <edge id=":1702929838_1" function="internal">
        <lane id=":1702929838_1_0" index="0" allow="delivery bicycle pedestrian" speed="5.56" length="5.99" shape="527.74,922.79 526.18,923.64 525.08,924.19 523.92,924.54 522.17,924.83"/>
    </edge>
    <edge id=":1702929838_2" function="internal">
        <lane id=":1702929838_2_0" index="0" allow="delivery bicycle pedestrian" speed="5.56" length="4.82" shape="527.74,922.79 526.26,922.65 525.50,922.12 525.47,921.20 526.17,919.88"/>
    </edge>
    <edge id=":1702929838_3" function="internal">
        <lane id=":1702929838_3_0" index="0" allow="delivery bicycle pedestrian" speed="5.56" length="4.80" shape="521.73,921.56 523.12,921.32 524.05,921.03 524.93,920.58 526.17,919.88"/>
    </edge>
    <edge id=":1702929838_4" function="internal">
        <lane id=":1702929838_4_0" index="0" allow="delivery bicycle pedestrian" speed="5.56" length="7.49" shape="521.73,921.56 522.53,921.84 523.61,922.84 524.98,924.57 526.63,927.03"/>
    </edge>
    <edge id=":1702929838_5" function="internal">
        <lane id=":1702929838_5_0" index="0" allow="delivery bicycle pedestrian" speed="5.56" length="4.82" shape="521.73,921.56 523.07,922.21 523.59,922.98 523.29,923.85 522.17,924.83"/>
    </edge>
    <edge id=":1702929859_0" function="internal">
        <lane id=":1702929859_0_0" index="0" disallow="tram rail_urban rail rail_electric ship" speed="13.89" length="5.04" shape="901.86,917.08 901.25,915.83 900.39,915.08 899.29,914.82 897.93,915.05"/>
    </edge>
    <edge id=":1702929859_1" function="internal">
        <lane id=":1702929859_1_0" index="0" disallow="tram rail_urban rail rail_electric ship" speed="13.89" length="9.75" shape="901.86,917.08 899.08,907.73"/>
    </edge>
    <edge id=":1702929859_2" function="internal">
        <lane id=":1702929859_2_0" index="0" disallow="tram rail_urban rail rail_electric ship" speed="13.89" length="10.46" shape="901.86,917.08 901.37,914.27 901.92,911.98 903.50,910.22 906.11,908.99"/>
    </edge>
    <edge id=":1702929859_3" function="internal">
        <lane id=":1702929859_3_0" index="0" disallow="tram rail_urban rail rail_electric ship" speed="13.89" length="4.82" shape="901.86,917.08 902.26,915.65 902.91,915.00 903.83,915.14 904.99,916.06"/>
    </edge>
    <edge id=":1702929859_4" function="internal">
        <lane id=":1702929859_4_0" index="0" disallow="tram rail_urban rail rail_electric ship" speed="13.89" length="5.08" shape="907.09,912.14 905.81,912.74 905.03,913.59 904.76,914.70 904.99,916.06"/>
    </edge>
    <edge id=":1702929859_5" function="internal">
        <lane id=":1702929859_5_0" index="0" disallow="tram rail_urban rail rail_electric ship" speed="13.89" length="9.60" shape="907.09,912.14 897.93,915.05"/>
    </edge>
    <edge id=":1702929859_6" function="internal">
        <lane id=":1702929859_6_0" index="0" disallow="tram rail_urban rail rail_electric ship" speed="13.89" length="5.26" shape="907.09,912.14 904.23,912.60 901.94,912.01"/>
    </edge>
    <edge id=":1702929859_7" function="internal">
        <lane id=":1702929859_7_0" index="0" disallow="tram rail_urban rail rail_electric ship" speed="13.89" length="2.41" shape="907.09,912.14 905.66,911.72 905.02,911.05"/>
    </edge>
    <edge id=":1702929859_16" function="internal">
        <lane id=":1702929859_16_0" index="0" speed="13.89" length="5.26" shape="901.94,912.01 900.22,910.39 899.08,907.73"/>
    </edge>
    <edge id=":1702929859_17" function="internal">
        <lane id=":1702929859_17_0" index="0" speed="13.89" length="2.41" shape="905.02,911.05 905.17,910.14 906.11,908.99"/>
    </edge>
    <edge id=":1702929859_8" function="internal">
        <lane id=":1702929859_8_0" index="0" disallow="tram rail_urban rail rail_electric ship" speed="13.89" length="5.05" shape="902.27,906.87 902.81,908.15 903.64,908.93 904.74,909.21 906.11,908.99"/>
    </edge>
    <edge id=":1702929859_9" function="internal">
        <lane id=":1702929859_9_0" index="0" disallow="tram rail_urban rail rail_electric ship" speed="13.89" length="9.58" shape="902.27,906.87 904.99,916.06"/>
    </edge>
    <edge id=":1702929859_10" function="internal">
        <lane id=":1702929859_10_0" index="0" disallow="tram rail_urban rail rail_electric ship" speed="13.89" length="10.44" shape="902.27,906.87 902.62,909.72 902.02,912.03 900.46,913.81 897.93,915.05"/>
    </edge>
    <edge id=":1702929859_11" function="internal">
        <lane id=":1702929859_11_0" index="0" disallow="tram rail_urban rail rail_electric ship" speed="13.89" length="4.82" shape="902.27,906.87 901.79,908.28 901.10,908.89 900.20,908.71 899.08,907.73"/>
    </edge>
    <edge id=":1702929859_12" function="internal">
        <lane id=":1702929859_12_0" index="0" disallow="tram rail_urban rail rail_electric ship" speed="13.89" length="5.31" shape="896.91,911.91 898.18,911.28 898.97,910.37 899.27,909.19 899.08,907.73"/>
    </edge>
    <edge id=":1702929859_13" function="internal">
        <lane id=":1702929859_13_0" index="0" disallow="tram rail_urban rail rail_electric ship" speed="13.89" length="9.65" shape="896.91,911.91 906.11,908.99"/>
    </edge>
    <edge id=":1702929859_14" function="internal">
        <lane id=":1702929859_14_0" index="0" disallow="tram rail_urban rail rail_electric ship" speed="13.89" length="5.31" shape="896.91,911.91 899.70,911.43 901.98,911.96 902.08,912.05"/>
    </edge>
    <edge id=":1702929859_15" function="internal">
        <lane id=":1702929859_15_0" index="0" disallow="tram rail_urban rail rail_electric ship" speed="13.89" length="2.41" shape="896.91,911.91 898.34,912.31 898.99,912.97"/>
    </edge>
    <edge id=":1702929859_18" function="internal">
        <lane id=":1702929859_18_0" index="0" speed="13.89" length="5.05" shape="902.08,912.05 903.74,913.50 904.99,916.06"/>
    </edge>
    <edge id=":1702929859_19" function="internal">
        <lane id=":1702929859_19_0" index="0" speed="13.89" length="2.41" shape="898.99,912.97 898.86,913.88 897.93,915.05"/>
    </edge>
    <edge id=":1702929910_0" function="internal">
        <lane id=":1702929910_0_0" index="0" disallow="tram rail_urban rail rail_electric ship" speed="13.89" length="4.82" shape="198.50,823.65 198.58,822.16 199.08,821.39 200.00,821.33 201.34,821.98"/>
    </edge>
    <edge id=":1702929980_0" function="internal">
        <lane id=":1702929980_0_0" index="0" disallow="tram rail_urban rail rail_electric ship" speed="13.89" length="5.03" shape="860.28,763.57 859.74,762.30 858.92,761.52 857.83,761.23 856.46,761.43"/>
    </edge>
    <edge id=":1702929980_1" function="internal">
        <lane id=":1702929980_1_0" index="0" disallow="tram rail_urban rail rail_electric ship" speed="13.89" length="9.58" shape="860.28,763.57 857.56,754.38"/>
    </edge>
    <edge id=":1702929980_2" function="internal">
        <lane id=":1702929980_2_0" index="0" disallow="tram rail_urban rail rail_electric ship" speed="13.89" length="10.36" shape="860.28,763.57 859.93,760.74 860.54,758.45 862.10,756.71 864.63,755.52"/>
    </edge>
    <edge id=":1702929980_3" function="internal">
        <lane id=":1702929980_3_0" index="0" disallow="tram rail_urban rail rail_electric ship" speed="13.89" length="4.82" shape="860.28,763.57 860.76,762.16 861.45,761.55 862.35,761.73 863.47,762.71"/>
    </edge>
    <edge id=":1702929980_4" function="internal">
        <lane id=":1702929980_4_0" index="0" disallow="tram rail_urban rail rail_electric ship" speed="13.89" length="5.17" shape="865.60,758.67 864.35,759.27 863.58,760.14 863.29,761.29 863.47,762.71"/>
    </edge>
    <edge id=":1702929980_5" function="internal">
        <lane id=":1702929980_5_0" index="0" disallow="tram rail_urban rail rail_electric ship" speed="13.89" length="9.55" shape="865.60,758.67 856.46,761.43"/>
    </edge>
    <edge id=":1702929980_6" function="internal">
        <lane id=":1702929980_6_0" index="0" disallow="tram rail_urban rail rail_electric ship" speed="13.89" length="5.26" shape="865.60,758.67 862.83,759.10 860.57,758.53 860.47,758.44"/>
    </edge>
    <edge id=":1702929980_7" function="internal">
        <lane id=":1702929980_7_0" index="0" disallow="tram rail_urban rail rail_electric ship" speed="13.89" length="2.41" shape="865.60,758.67 864.17,758.25 863.54,757.58"/>
    </edge>
    <edge id=":1702929980_16" function="internal">
        <lane id=":1702929980_16_0" index="0" speed="13.89" length="5.09" shape="860.47,758.44 858.81,756.95 857.56,754.38"/>
    </edge>
    <edge id=":1702929980_17" function="internal">
        <lane id=":1702929980_17_0" index="0" speed="13.89" length="2.41" shape="863.54,757.58 863.69,756.67 864.63,755.52"/>
    </edge>
    <edge id=":1702929980_8" function="internal">
        <lane id=":1702929980_8_0" index="0" disallow="tram rail_urban rail rail_electric ship" speed="13.89" length="5.09" shape="860.70,753.37 861.32,754.65 862.18,755.43 863.28,755.72 864.63,755.52"/>
    </edge>
    <edge id=":1702929980_9" function="internal">
        <lane id=":1702929980_9_0" index="0" disallow="tram rail_urban rail rail_electric ship" speed="13.89" length="9.74" shape="860.70,753.37 863.47,762.71"/>
    </edge>
    <edge id=":1702929980_10" function="internal">
        <lane id=":1702929980_10_0" index="0" disallow="tram rail_urban rail rail_electric ship" speed="13.89" length="10.45" shape="860.70,753.37 861.19,756.20 860.65,758.49 859.07,760.23 856.46,761.43"/>
    </edge>
    <edge id=":1702929980_11" function="internal">
        <lane id=":1702929980_11_0" index="0" disallow="tram rail_urban rail rail_electric ship" speed="13.89" length="4.82" shape="860.70,753.37 860.30,754.80 859.64,755.45 858.73,755.31 857.56,754.38"/>
    </edge>
    <edge id=":1702929980_12" function="internal">
        <lane id=":1702929980_12_0" index="0" disallow="tram rail_urban rail rail_electric ship" speed="13.89" length="5.03" shape="855.52,758.27 856.78,757.69 857.54,756.85 857.80,755.75 857.56,754.38"/>
    </edge>
    <edge id=":1702929980_13" function="internal">
        <lane id=":1702929980_13_0" index="0" disallow="tram rail_urban rail rail_electric ship" speed="13.89" length="9.52" shape="855.52,758.27 864.63,755.52"/>
    </edge>
    <edge id=":1702929980_14" function="internal">
        <lane id=":1702929980_14_0" index="0" disallow="tram rail_urban rail rail_electric ship" speed="13.89" length="5.23" shape="855.52,758.27 858.36,757.85 860.63,758.45"/>
    </edge>
    <edge id=":1702929980_15" function="internal">
        <lane id=":1702929980_15_0" index="0" disallow="tram rail_urban rail rail_electric ship" speed="13.89" length="2.41" shape="855.52,758.27 856.94,758.70 857.57,759.38"/>
    </edge>
    <edge id=":1702929980_18" function="internal">
        <lane id=":1702929980_18_0" index="0" speed="13.89" length="5.23" shape="860.63,758.45 862.34,760.07 863.47,762.71"/>
    </edge>
    <edge id=":1702929980_19" function="internal">
        <lane id=":1702929980_19_0" index="0" speed="13.89" length="2.41" shape="857.57,759.38 857.41,760.29 856.46,761.43"/>
    </edge>
    <edge id=":1702930008_0" function="internal">
        <lane id=":1702930008_0_0" index="0" disallow="tram rail_urban rail rail_electric ship" speed="13.89" length="4.82" shape="1066.89,690.55 1068.32,690.96 1068.97,691.62 1068.82,692.53 1067.89,693.69"/>
    </edge>
    <edge id=":1702930056_0" function="internal">
        <lane id=":1702930056_0_0" index="0" disallow="tram rail_urban rail rail_electric ship" speed="13.89" length="9.53" shape="735.15,630.24 730.96,621.68"/>
    </edge>
    <edge id=":1702930056_1" function="internal">
        <lane id=":1702930056_1_0" index="0" disallow="tram rail_urban rail rail_electric ship" speed="13.89" length="5.38" shape="735.15,630.24 734.21,627.29 734.50,625.03"/>
    </edge>
    <edge id=":1702930056_2" function="internal">
        <lane id=":1702930056_2_0" index="0" disallow="tram rail_urban rail rail_electric ship" speed="13.89" length="2.41" shape="735.15,630.24 735.36,628.76 735.92,628.03"/>
    </edge>
    <edge id=":1702930056_9" function="internal">
        <lane id=":1702930056_9_0" index="0" speed="13.89" length="5.69" shape="734.50,625.03 734.52,624.87 736.06,622.98 738.84,621.63"/>
    </edge>
    <edge id=":1702930056_10" function="internal">
        <lane id=":1702930056_10_0" index="0" speed="13.89" length="2.41" shape="735.92,628.03 736.84,628.04 738.12,628.80"/>
    </edge>
    <edge id=":1702930056_3" function="internal">
        <lane id=":1702930056_3_0" index="0" disallow="tram rail_urban rail rail_electric ship" speed="13.89" length="5.18" shape="739.85,624.77 738.55,625.40 737.82,626.29 737.68,627.42 738.12,628.80"/>
    </edge>
    <edge id=":1702930056_4" function="internal">
        <lane id=":1702930056_4_0" index="0" disallow="tram rail_urban rail rail_electric ship" speed="13.89" length="10.40" shape="739.85,624.77 736.91,625.34 734.45,625.01 732.47,623.79 730.96,621.68"/>
    </edge>
    <edge id=":1702930056_5" function="internal">