<?xml version="1.0" encoding="UTF-8"?>

<!-- generated on qui 26 out 2017 13:55:49 -03 by SUMO gui Version 0.28.0
<?xml version="1.0" encoding="UTF-8"?>

<configuration xmlns:xsi="http://www.w3.org/2001/XMLSchema-instance" xsi:noNamespaceSchemaLocation="http://sumo.dlr.de/xsd/sumo-gui.exeConfiguration.xsd">

    <input>
        <net-file value="/home/gustavo/Área%20de%20Trabalho/GitHub/SUMO/sumo/ex1.net.xml"/>
        <route-files value="/home/gustavo/Área%20de%20Trabalho/GitHub/SUMO/sumo/ex1.rou.xml"/>
        <additional-files value="/home/gustavo/Área%20de%20Trabalho/GitHub/SUMO/sumo/busStops.add.xml"/>
    </input>

    <output>
        <tripinfo-output value="/home/gustavo/Área%20de%20Trabalho/GitHub/SUMO/sumo/tripinfos.xml"/>
    </output>

</configuration>
