<edges>
    <edge from="1" id="1to2" to="2" numLanes="2"/>
    <edge from="2" id="2to3" to="3" numLanes="2"/>
    <edge from="3" id="3to2" to="2" numLanes="2"/>
    <edge from="2" id="2to1" to="1" numLanes="2"/>
</edges>
