<?xml version="1.0" encoding="UTF-8"?>

<!-- generated on Thu Jan 28 13:28:24 2016 by SUMO netconvert Version 0.19.0
<?xml version="1.0" encoding="UTF-8"?>

<configuration xmlns:xsi="http://www.w3.org/2001/XMLSchema-instance" xsi:noNamespaceSchemaLocation="http://sumo-sim.org/xsd/netconvertConfiguration.xsd">

    <input>
        <node-files value="s.nod.xml"/>
        <edge-files value="s.edg.xml"/>
    </input>

    <output>
        <output-file value="s.net.xml"/>
    </output>

    <processing>
        <offset.x value="1"/>
        <offset.y value="1"/>
    </processing>

</configuration>
-->

<net version="0.13" xmlns:xsi="http://www.w3.org/2001/XMLSchema-instance" xsi:noNamespaceSchemaLocation="http://sumo-sim.org/xsd/net_file.xsd">

    <location netOffset="1.00,1.00" convBoundary="11.00,3011.00,7011.00,3011.00" origBoundary="10.00,3010.00,7010.00,3010.00" projParameter="!"/>

    <edge id=":1_0" function="internal">
        <lane id=":1_0_0" index="0" speed="13.90" length="4.82" shape="11.00,3012.65 9.76,3011.83 9.35,3011.00 9.76,3010.18 11.00,3009.35"/>
    </edge>
    <edge id=":2_0" function="internal">
        <lane id=":2_0_0" index="0" speed="13.90" length="0.10" shape="511.00,3015.95 511.00,3015.95"/>
        <lane id=":2_0_1" index="1" speed="13.90" length="0.10" shape="511.00,3012.65 511.00,3012.65"/>
    </edge>
    <edge id=":2_2" function="internal">
        <lane id=":2_2_0" index="0" speed="13.90" length="2.41" shape="511.00,3012.65 509.76,3011.83 509.35,3011.00"/>
    </edge>
    <edge id=":2_6" function="internal">
        <lane id=":2_6_0" index="0" speed="13.90" length="2.41" shape="509.35,3011.00 509.76,3010.18 511.00,3009.35"/>
    </edge>
    <edge id=":2_3" function="internal">
        <lane id=":2_3_0" index="0" speed="13.90" length="0.10" shape="511.00,3006.05 511.00,3006.05"/>
        <lane id=":2_3_1" index="1" speed="13.90" length="0.10" shape="511.00,3009.35 511.00,3009.35"/>
    </edge>
    <edge id=":2_5" function="internal">
        <lane id=":2_5_0" index="0" speed="13.90" length="2.41" shape="511.00,3009.35 512.24,3010.17 512.65,3011.00"/>
    </edge>
    <edge id=":2_7" function="internal">
        <lane id=":2_7_0" index="0" speed="13.90" length="2.41" shape="512.65,3011.00 512.24,3011.82 511.00,3012.65"/>
    </edge>
    <edge id=":3_0" function="internal">
        <lane id=":3_0_0" index="0" speed="13.90" length="4.82" shape="7011.00,3009.35 7012.24,3010.17 7012.65,3011.00 7012.24,3011.82 7011.00,3012.65"/>
    </edge>

    <edge id="1to2" from="1" to="2" priority="-1">
        <lane id="1to2_0" index="0" speed="13.90" length="500.00" shape="11.00,3006.05 511.00,3006.05"/>
        <lane id="1to2_1" index="1" speed="13.90" length="500.00" shape="11.00,3009.35 511.00,3009.35"/>
    </edge>
    <edge id="2to1" from="2" to="1" priority="-1">
        <lane id="2to1_0" index="0" speed="13.90" length="500.00" shape="511.00,3015.95 11.00,3015.95"/>
        <lane id="2to1_1" index="1" speed="13.90" length="500.00" shape="511.00,3012.65 11.00,3012.65"/>
    </edge>
    <edge id="2to3" from="2" to="3" priority="-1">
        <lane id="2to3_0" index="0" speed="13.90" length="6500.00" shape="511.00,3006.05 7011.00,3006.05"/>
        <lane id="2to3_1" index="1" speed="13.90" length="6500.00" shape="511.00,3009.35 7011.00,3009.35"/>
    </edge>
    <edge id="3to2" from="3" to="2" priority="-1">
        <lane id="3to2_0" index="0" speed="13.90" length="6500.00" shape="7011.00,3015.95 511.00,3015.95"/>
        <lane id="3to2_1" index="1" speed="13.90" length="6500.00" shape="7011.00,3012.65 511.00,3012.65"/>
    </edge>

    <tlLogic id="1" type="static" programID="0" offset="0">
        <phase duration="31" state="G"/>
        <phase duration="4" state="y"/>
    </tlLogic>
    <tlLogic id="2" type="static" programID="0" offset="0">
        <phase duration="31" state="GGgGGr"/>
        <phase duration="4" state="yyyyyr"/>
        <phase duration="31" state="GGrGGg"/>
        <phase duration="4" state="yyryyy"/>
    </tlLogic>
    <tlLogic id="3" type="static" programID="0" offset="0">
        <phase duration="31" state="G"/>
        <phase duration="4" state="y"/>
    </tlLogic>

    <junction id="1" type="traffic_light" x="11.00" y="3011.00" incLanes="2to1_0 2to1_1" intLanes=":1_0_0" shape="11.00,3010.95 11.00,3004.45 11.00,3017.55 11.00,3011.05">
        <request index="0" response="0" foes="0" cont="0"/>
    </junction>
    <junction id="2" type="traffic_light" x="511.00" y="3011.00" incLanes="3to2_0 3to2_1 1to2_0 1to2_1" intLanes=":2_0_0 :2_0_1 :2_6_0 :2_3_0 :2_3_1 :2_7_0" shape="511.00,3017.55 511.00,3004.45 511.00,3017.55">
        <request index="0" response="000000" foes="100000" cont="0"/>
        <request index="1" response="000000" foes="100000" cont="0"/>
        <request index="2" response="011000" foes="011000" cont="1"/>
        <request index="3" response="000000" foes="000100" cont="0"/>
        <request index="4" response="000000" foes="000100" cont="0"/>
        <request index="5" response="000011" foes="000011" cont="1"/>
    </junction>
    <junction id="3" type="traffic_light" x="7011.00" y="3011.00" incLanes="2to3_0 2to3_1" intLanes=":3_0_0" shape="7011.00,3011.05 7011.00,3017.55 7011.00,3004.45 7011.00,3010.95">
        <request index="0" response="0" foes="0" cont="0"/>
    </junction>

    <junction id=":2_6_0" type="internal" x="509.35" y="3011.00" incLanes=":2_2_0 1to2_0 1to2_1" intLanes=":2_3_0 :2_3_1"/>
    <junction id=":2_7_0" type="internal" x="512.65" y="3011.00" incLanes=":2_5_0 3to2_0 3to2_1" intLanes=":2_0_0 :2_0_1"/>

    <connection from="1to2" to="2to3" fromLane="0" toLane="0" via=":2_3_0" tl="2" linkIndex="3" dir="s" state="o"/>
    <connection from="1to2" to="2to3" fromLane="1" toLane="1" via=":2_3_1" tl="2" linkIndex="4" dir="s" state="o"/>
    <connection from="1to2" to="2to1" fromLane="1" toLane="1" via=":2_5_0" tl="2" linkIndex="5" dir="t" state="o"/>
    <connection from="2to1" to="1to2" fromLane="1" toLane="1" via=":1_0_0" tl="1" linkIndex="0" dir="t" state="o"/>
    <connection from="2to3" to="3to2" fromLane="1" toLane="1" via=":3_0_0" tl="3" linkIndex="0" dir="t" state="o"/>
    <connection from="3to2" to="2to1" fromLane="0" toLane="0" via=":2_0_0" tl="2" linkIndex="0" dir="s" state="o"/>
    <connection from="3to2" to="2to1" fromLane="1" toLane="1" via=":2_0_1" tl="2" linkIndex="1" dir="s" state="o"/>
    <connection from="3to2" to="2to3" fromLane="1" toLane="1" via=":2_2_0" tl="2" linkIndex="2" dir="t" state="o"/>

    <connection from=":1_0" to="1to2" fromLane="0" toLane="1" dir="s" state="M"/>
    <connection from=":2_0" to="2to1" fromLane="0" toLane="0" dir="s" state="M"/>
    <connection from=":2_0" to="2to1" fromLane="1" toLane="1" dir="s" state="M"/>
    <connection from=":2_2" to="2to3" fromLane="0" toLane="1" via=":2_6_0" dir="s" state="M"/>
    <connection from=":2_6" to="2to3" fromLane="0" toLane="1" dir="s" state="M"/>
    <connection from=":2_3" to="2to3" fromLane="0" toLane="0" dir="s" state="M"/>
    <connection from=":2_3" to="2to3" fromLane="1" toLane="1" dir="s" state="M"/>
    <connection from=":2_5" to="2to1" fromLane="0" toLane="1" via=":2_7_0" dir="s" state="M"/>
    <connection from=":2_7" to="2to1" fromLane="0" toLane="1" dir="s" state="M"/>
    <connection from=":3_0" to="3to2" fromLane="0" toLane="1" dir="s" state="M"/>

</net>
