<?xml version="1.0" encoding="UTF-8"?>

<!-- generated on qui 26 out 2017 14:53:48 -03 by Netedit Version 0.28.0
<?xml version="1.0" encoding="UTF-8"?>

<configuration xmlns:xsi="http://www.w3.org/2001/XMLSchema-instance" xsi:noNamespaceSchemaLocation="http://sumo.dlr.de/xsd/netedit.exeConfiguration.xsd">

    <input>
        <sumo-net-file value="/home/gustavo/Área%20de%20Trabalho/GitHub/SUMO/novo_teste/teste.net.xml"/>
    </input>

    <output>
        <output-file value="/home/gustavo/Área%20de%20Trabalho/GitHub/SUMO/novo_teste/teste.net.xml"/>
    </output>

    <processing>
        <no-turnarounds value="true"/>
        <offset.disable-normalization value="true"/>
        <lefthand value="false"/>
        <junctions.corner-detail value="0"/>
    </processing>

</configuration>
-->

<net version="0.27" xmlns:xsi="http://www.w3.org/2001/XMLSchema-instance" xsi:noNamespaceSchemaLocation="http://sumo.dlr.de/xsd/net_file.xsd">

    <location netOffset="0.00,0.00" convBoundary="-469.15,-367.76,704.50,126.70" origBoundary="-10000000000.00,-10000000000.00,10000000000.00,10000000000.00" projParameter="!"/>

    <edge id=":gneJ1_0" function="internal">
        <lane id=":gneJ1_0_0" index="0" speed="13.89" length="3.55" shape="-33.04,56.08 -32.99,57.11 -33.12,57.83 -33.48,58.48 -34.12,59.31"/>
    </edge>
    <edge id=":gneJ1_1" function="internal">
        <lane id=":gneJ1_1_0" index="0" speed="13.89" length="0.91" shape="-36.70,57.25 -36.32,56.42"/>
    </edge>
    <edge id=":gneJ10_0" function="internal">
        <lane id=":gneJ10_0_0" index="0" speed="13.89" length="3.50" shape="245.52,-351.90 242.44,-348.84"/>
        <lane id=":gneJ10_0_1" index="1" speed="13.89" length="3.50" shape="245.52,-351.90 242.87,-352.12"/>
    </edge>
    <edge id=":gneJ10_2" function="internal">
        <lane id=":gneJ10_2_0" index="0" speed="13.89" length="3.94" shape="243.72,-358.66 245.61,-355.20"/>
    </edge>
    <edge id=":gneJ11_0" function="internal">
        <lane id=":gneJ11_0_0" index="0" speed="13.89" length="0.17" shape="325.29,-349.59 325.11,-349.59"/>
    </edge>
    <edge id=":gneJ11_1" function="internal">
        <lane id=":gneJ11_1_0" index="0" speed="13.89" length="0.10" shape="325.21,-352.89 325.24,-352.89"/>
    </edge>
    <edge id=":gneJ12_0" function="internal">
        <lane id=":gneJ12_0_0" index="0" speed="13.89" length="0.27" shape="410.83,-350.77 410.56,-350.77"/>
    </edge>
    <edge id=":gneJ12_1" function="internal">
        <lane id=":gneJ12_1_0" index="0" speed="13.89" length="0.31" shape="410.51,-354.07 410.83,-354.07"/>
    </edge>
    <edge id=":gneJ13_0" function="internal">
        <lane id=":gneJ13_0_0" index="0" speed="13.89" length="1.32" shape="481.89,-350.25 481.64,-350.48 481.36,-350.64 481.05,-350.74 480.71,-350.77"/>
    </edge>
    <edge id=":gneJ13_1" function="internal">
        <lane id=":gneJ13_1_0" index="0" speed="13.89" length="4.06" shape="480.71,-354.07 481.75,-353.97 482.69,-353.67 483.55,-353.18 484.32,-352.49"/>
    </edge>
    <edge id=":gneJ14_0" function="internal">
        <lane id=":gneJ14_0_0" index="0" speed="13.89" length="0.30" shape="520.73,-307.94 520.68,-308.02 520.65,-308.07 520.61,-308.11 520.55,-308.18"/>
    </edge>
    <edge id=":gneJ14_1" function="internal">
        <lane id=":gneJ14_1_0" index="0" speed="13.89" length="0.91" shape="522.98,-310.41 523.16,-310.21 523.28,-310.07 523.39,-309.91 523.53,-309.68"/>
    </edge>
    <edge id=":gneJ15_0" function="internal">
        <lane id=":gneJ15_0_0" index="0" speed="13.89" length="2.47" shape="554.69,-254.50 554.06,-254.87 553.66,-255.18 553.34,-255.57 552.94,-256.18"/>
    </edge>
    <edge id=":gneJ15_1" function="internal">
        <lane id=":gneJ15_1_0" index="0" speed="13.89" length="0.81" shape="555.74,-257.93 555.87,-257.73 555.98,-257.60 556.11,-257.50 556.31,-257.38"/>
    </edge>
    <edge id=":gneJ16_0" function="internal">
        <lane id=":gneJ16_0_0" index="0" speed="13.89" length="1.73" shape="619.52,-218.31 619.01,-218.40 618.67,-218.49 618.35,-218.63 617.90,-218.88"/>
    </edge>
    <edge id=":gneJ16_1" function="internal">
        <lane id=":gneJ16_1_0" index="0" speed="13.89" length="0.57" shape="619.52,-221.75 619.66,-221.67 619.77,-221.62 619.88,-221.59 620.05,-221.57"/>
    </edge>
    <edge id=":gneJ17_0" function="internal">
        <lane id=":gneJ17_0_0" index="0" speed="13.89" length="34.86" shape="648.31,-216.96 661.69,-213.79 666.63,-209.99 663.14,-205.56 651.21,-200.50"/>
        <lane id=":gneJ17_0_1" index="1" speed="13.89" length="34.86" shape="648.31,-216.96 658.99,-214.41 662.86,-211.34 659.92,-207.75 650.17,-203.63"/>
    </edge>
    <edge id=":gneJ17_2" function="internal">
        <lane id=":gneJ17_2_0" index="0" speed="13.89" length="8.86" shape="648.09,-209.90 650.92,-211.08 651.81,-212.11 650.77,-212.99 647.78,-213.71"/>
    </edge>
    <edge id=":gneJ2_0" function="internal">
        <lane id=":gneJ2_0_0" index="0" speed="13.89" length="10.99" shape="-36.35,56.22 -37.05,55.09 -38.91,54.00 -41.93,52.95 -46.11,51.95"/>
    </edge>
    <edge id=":gneJ2_1" function="internal">
        <lane id=":gneJ2_1_0" index="0" speed="13.89" length="11.00" shape="-36.35,56.22 -37.05,55.08 -38.90,53.98 -41.92,52.91 -46.10,51.87"/>
    </edge>
    <edge id=":gneJ2_2" function="internal">
        <lane id=":gneJ2_2_0" index="0" speed="13.89" length="25.07" shape="-36.35,56.22 -36.70,51.93 -36.73,46.44 -36.01,39.64 -34.14,31.41"/>
    </edge>
    <edge id=":gneJ2_3" function="internal">
        <lane id=":gneJ2_3_0" index="0" speed="13.89" length="41.21" shape="-36.35,56.22 -34.52,51.88 -28.19,47.01 -17.37,41.63 -2.03,35.73"/>
    </edge>
    <edge id=":gneJ2_4" function="internal">
        <lane id=":gneJ2_4_0" index="0" speed="13.89" length="40.38" shape="-36.35,56.22 -34.10,53.94 -26.81,52.44 -14.48,51.74 2.90,51.83"/>
    </edge>
    <edge id=":gneJ2_5" function="internal">
        <lane id=":gneJ2_5_0" index="0" speed="13.89" length="21.94" shape="-36.35,56.22 -35.36,54.01 -31.73,53.62 -25.48,55.04 -16.59,58.28"/>
    </edge>
    <edge id=":gneJ2_6" function="internal">
        <lane id=":gneJ2_6_0" index="0" speed="13.89" length="16.21" shape="-17.84,61.34 -20.62,60.19 -25.84,58.10 -30.86,56.26 -33.06,55.88"/>
    </edge>
    <edge id=":gneJ2_7" function="internal">
        <lane id=":gneJ2_7_0" index="0" speed="13.89" length="29.79" shape="-17.84,61.34 -46.11,51.95"/>
    </edge>
    <edge id=":gneJ2_8" function="internal">
        <lane id=":gneJ2_8_0" index="0" speed="13.89" length="29.80" shape="-17.84,61.34 -46.10,51.87"/>
    </edge>
    <edge id=":gneJ2_9" function="internal">
        <lane id=":gneJ2_9_0" index="0" speed="13.89" length="10.01" shape="-17.84,61.34 -26.56,56.44"/>
    </edge>
    <edge id=":gneJ2_10" function="internal">
        <lane id=":gneJ2_10_0" index="0" speed="13.89" length="7.26" shape="-17.84,61.34 -23.89,57.32"/>
    </edge>
    <edge id=":gneJ2_11" function="internal">
        <lane id=":gneJ2_11_0" index="0" speed="13.89" length="12.50" shape="-17.84,61.34 -26.37,56.75 -25.83,53.99"/>
    </edge>
    <edge id=":gneJ2_46" function="internal">
        <lane id=":gneJ2_46_0" index="0" speed="13.89" length="27.98" shape="-26.56,56.44 -27.22,56.07 -33.06,49.32 -35.37,41.10 -34.14,31.41"/>
    </edge>
    <edge id=":gneJ2_47" function="internal">
        <lane id=":gneJ2_47_0" index="0" speed="13.89" length="33.53" shape="-23.89,57.32 -24.99,56.59 -24.56,51.26 -16.55,45.35 -0.94,38.85"/>
    </edge>
    <edge id=":gneJ2_48" function="internal">
        <lane id=":gneJ2_48_0" index="0" speed="13.89" length="29.16" shape="-25.83,53.99 -25.76,53.63 -16.00,51.99 2.90,51.83"/>
    </edge>
    <edge id=":gneJ2_12" function="internal">
        <lane id=":gneJ2_12_0" index="0" speed="13.89" length="24.87" shape="2.82,55.13 -9.23,55.06 -16.49,55.56 -18.94,56.64 -16.59,58.28"/>
    </edge>
    <edge id=":gneJ2_13" function="internal">
        <lane id=":gneJ2_13_0" index="0" speed="13.89" length="35.99" shape="2.82,55.13 -12.94,54.85 -24.18,54.88 -30.88,55.22 -33.06,55.88"/>
    </edge>
    <edge id=":gneJ2_14" function="internal">
        <lane id=":gneJ2_14_0" index="0" speed="13.89" length="49.04" shape="2.82,55.13 -46.11,51.95"/>
    </edge>
    <edge id=":gneJ2_15" function="internal">
        <lane id=":gneJ2_15_0" index="0" speed="13.89" length="49.03" shape="2.82,55.13 -46.10,51.87"/>
    </edge>
    <edge id=":gneJ2_16" function="internal">
        <lane id=":gneJ2_16_0" index="0" speed="13.89" length="47.95" shape="2.82,55.13 -14.32,53.34 -25.66,48.94 -31.21,41.93 -30.97,32.33"/>
    </edge>
    <edge id=":gneJ2_17" function="internal">
        <lane id=":gneJ2_17_0" index="0" speed="13.89" length="49.34" shape="2.82,55.13 -15.02,53.68 -21.60,50.48 -16.91,45.54 -0.94,38.85"/>
    </edge>
    <edge id=":gneJ2_18" function="internal">
        <lane id=":gneJ2_18_0" index="0" speed="13.89" length="10.91" shape="2.33,48.19 -1.26,49.69 -2.37,50.79 -0.98,51.51 2.90,51.83"/>
    </edge>
    <edge id=":gneJ2_19" function="internal">
        <lane id=":gneJ2_19_0" index="0" speed="13.89" length="22.87" shape="2.33,48.19 -7.67,51.91 -14.15,54.83 -17.13,56.95 -16.59,58.28"/>
    </edge>
    <edge id=":gneJ2_20" function="internal">
        <lane id=":gneJ2_20_0" index="0" speed="13.89" length="36.22" shape="2.33,48.19 -33.06,55.88"/>
    </edge>
    <edge id=":gneJ2_21" function="internal">
        <lane id=":gneJ2_21_0" index="0" speed="13.89" length="48.03" shape="1.24,45.07 -11.44,48.38 -25.91,50.75 -38.64,52.00 -46.11,51.95"/>
    </edge>
    <edge id=":gneJ2_22" function="internal">
        <lane id=":gneJ2_22_0" index="0" speed="13.89" length="48.01" shape="1.24,45.07 -11.44,48.38 -25.90,50.73 -38.63,51.95 -46.10,51.87"/>
    </edge>
    <edge id=":gneJ2_23" function="internal">
        <lane id=":gneJ2_23_0" index="0" speed="13.89" length="43.23" shape="0.15,41.96 -15.93,46.31 -26.47,46.15 -31.49,41.49 -30.97,32.33"/>
    </edge>
    <edge id=":gneJ2_24" function="internal">
        <lane id=":gneJ2_24_0" index="0" speed="13.89" length="19.88" shape="-21.45,35.06 -20.78,36.57 -17.51,36.66 -11.62,35.34 -3.13,32.62"/>
    </edge>
    <edge id=":gneJ2_25" function="internal">
        <lane id=":gneJ2_25_0" index="0" speed="13.89" length="38.28" shape="-24.62,34.15 -24.73,41.59 -20.17,47.01 -10.96,50.43 2.90,51.83"/>
    </edge>
    <edge id=":gneJ2_26" function="internal">
        <lane id=":gneJ2_26_0" index="0" speed="13.89" length="28.23" shape="-24.62,34.15 -26.14,42.66 -25.30,49.52 -22.12,54.73 -16.59,58.28"/>
    </edge>
    <edge id=":gneJ2_27" function="internal">
        <lane id=":gneJ2_27_0" index="0" speed="13.89" length="23.44" shape="-24.62,34.15 -27.37,41.57 -30.25,47.35 -32.42,51.96 -33.06,55.88"/>
    </edge>
    <edge id=":gneJ2_28" function="internal">
        <lane id=":gneJ2_28_0" index="0" speed="13.89" length="5.42" shape="-27.79,33.24 -29.70,38.31"/>
    </edge>
    <edge id=":gneJ2_29" function="internal">
        <lane id=":gneJ2_29_0" index="0" speed="13.89" length="5.42" shape="-27.79,33.24 -29.70,38.31"/>
    </edge>
    <edge id=":gneJ2_49" function="internal">
        <lane id=":gneJ2_49_0" index="0" speed="13.89" length="23.42" shape="-29.70,38.31 -31.23,42.37 -35.43,48.53 -40.39,51.73 -46.11,51.95"/>
    </edge>
    <edge id=":gneJ2_50" function="internal">
        <lane id=":gneJ2_50_0" index="0" speed="13.89" length="23.38" shape="-29.70,38.31 -31.23,42.37 -35.43,48.52 -40.38,51.69 -46.10,51.87"/>
    </edge>
    <edge id=":gneJ2_30" function="internal">
        <lane id=":gneJ2_30_0" index="0" speed="13.89" length="17.16" shape="-44.71,45.42 -43.15,44.72 -41.40,42.00 -39.45,37.26 -37.31,30.50"/>
    </edge>
    <edge id=":gneJ2_31" function="internal">
        <lane id=":gneJ2_31_0" index="0" speed="13.89" length="44.61" shape="-44.71,45.42 -36.08,45.00 -25.56,41.66 -14.22,37.00 -3.13,32.62"/>
        <lane id=":gneJ2_31_1" index="1" speed="13.89" length="44.61" shape="-44.71,45.42 -35.91,45.49 -25.01,43.22 -13.30,39.63 -2.03,35.73"/>
    </edge>
    <edge id=":gneJ2_33" function="internal">
        <lane id=":gneJ2_33_0" index="0" speed="13.89" length="6.68" shape="-44.71,45.42 -46.11,51.95"/>
    </edge>
    <edge id=":gneJ2_34" function="internal">
        <lane id=":gneJ2_34_0" index="0" speed="13.89" length="44.61" shape="-45.40,48.64 -36.32,48.70 -24.82,46.39 -12.49,42.76 -0.94,38.85"/>
    </edge>
    <edge id=":gneJ2_35" function="internal">
        <lane id=":gneJ2_35_0" index="0" speed="13.89" length="48.44" shape="-45.40,48.64 -34.43,50.01 -19.46,50.98 -5.38,51.58 2.90,51.83"/>
    </edge>
    <edge id=":gneJ2_36" function="internal">
        <lane id=":gneJ2_36_0" index="0" speed="13.89" length="30.40" shape="-45.40,48.64 -37.43,50.77 -29.07,53.54 -21.68,56.28 -16.59,58.28"/>
    </edge>
    <edge id=":gneJ2_37" function="internal">
        <lane id=":gneJ2_37_0" index="0" speed="13.89" length="15.03" shape="-45.40,48.64 -40.19,50.05 -36.39,51.73 -34.02,53.67 -33.06,55.88"/>
    </edge>
    <edge id=":gneJ2_38" function="internal">
        <lane id=":gneJ2_38_0" index="0" speed="13.89" length="20.34" shape="-45.42,48.72 -43.90,47.79 -42.04,44.45 -39.84,38.68 -37.31,30.50"/>
    </edge>
    <edge id=":gneJ2_39" function="internal">
        <lane id=":gneJ2_39_0" index="0" speed="13.89" length="45.49" shape="-45.42,48.72 -38.74,47.33 -27.75,42.91 -15.02,37.37 -3.13,32.62"/>
        <lane id=":gneJ2_39_1" index="1" speed="13.89" length="45.49" shape="-45.42,48.72 -38.57,47.82 -27.20,44.47 -14.10,40.00 -2.03,35.73"/>
        <lane id=":gneJ2_39_2" index="2" speed="13.89" length="45.49" shape="-45.42,48.72 -38.39,48.30 -26.65,46.02 -13.18,42.62 -0.94,38.85"/>
    </edge>
    <edge id=":gneJ2_42" function="internal">
        <lane id=":gneJ2_42_0" index="0" speed="13.89" length="48.43" shape="-45.42,48.72 -36.51,49.62 -21.30,50.61 -6.07,51.44 2.90,51.83"/>
    </edge>
    <edge id=":gneJ2_43" function="internal">
        <lane id=":gneJ2_43_0" index="0" speed="13.89" length="30.38" shape="-45.42,48.72 -39.50,50.38 -30.91,53.18 -22.36,56.14 -16.59,58.28"/>
    </edge>
    <edge id=":gneJ2_44" function="internal">
        <lane id=":gneJ2_44_0" index="0" speed="13.89" length="1.60" shape="-45.42,48.72 -43.87,49.13"/>
    </edge>
    <edge id=":gneJ2_45" function="internal">
        <lane id=":gneJ2_45_0" index="0" speed="13.89" length="3.22" shape="-45.42,48.72 -46.10,51.87"/>
    </edge>
    <edge id=":gneJ2_51" function="internal">
        <lane id=":gneJ2_51_0" index="0" speed="13.89" length="13.41" shape="-43.87,49.13 -40.20,50.09 -36.40,51.74 -34.02,53.67 -33.06,55.88"/>
    </edge>
    <edge id=":gneJ21_0" function="internal">
        <lane id=":gneJ21_0_0" index="0" speed="13.89" length="18.22" shape="42.02,-196.44 42.13,-190.74 41.95,-186.82 41.24,-182.97 39.73,-177.48"/>
        <lane id=":gneJ21_0_1" index="1" speed="13.89" length="18.22" shape="38.72,-196.36 38.83,-190.96 38.66,-187.25 37.98,-183.60 36.56,-178.40"/>
        <lane id=":gneJ21_0_2" index="2" speed="13.89" length="18.22" shape="35.43,-196.28 35.53,-191.18 35.37,-187.67 34.73,-184.22 33.39,-179.31"/>
    </edge>
    <edge id=":gneJ21_3" function="internal">
        <lane id=":gneJ21_3_0" index="0" speed="13.89" length="5.35" shape="35.43,-196.28 34.25,-191.65 33.82,-191.27"/>
    </edge>
    <edge id=":gneJ21_4" function="internal">
        <lane id=":gneJ21_4_0" index="0" speed="13.89" length="5.17" shape="35.43,-196.28 34.29,-191.79 33.82,-191.52"/>
    </edge>
    <edge id=":gneJ21_16" function="internal">
        <lane id=":gneJ21_16_0" index="0" speed="13.89" length="20.27" shape="33.82,-191.27 30.46,-188.29 24.05,-186.21 15.04,-185.41"/>
    </edge>
    <edge id=":gneJ21_17" function="internal">
        <lane id=":gneJ21_17_0" index="0" speed="13.89" length="19.08" shape="33.82,-191.52 30.61,-189.64 24.38,-189.83 15.60,-192.35"/>
    </edge>
    <edge id=":gneJ21_5" function="internal">
        <lane id=":gneJ21_5_0" index="0" speed="13.89" length="10.14" shape="16.74,-195.45 20.62,-194.26 23.38,-193.97 25.01,-194.56 25.53,-196.04"/>
    </edge>
    <edge id=":gneJ21_6" function="internal">
        <lane id=":gneJ21_6_0" index="0" speed="13.89" length="28.12" shape="16.74,-195.45 26.37,-191.30 32.88,-187.08 36.28,-182.78 36.56,-178.40"/>
    </edge>
    <edge id=":gneJ21_7" function="internal">
        <lane id=":gneJ21_7_0" index="0" speed="13.89" length="29.69" shape="16.74,-195.45 26.44,-191.22 29.39,-188.14 25.59,-186.20 15.04,-185.41"/>
    </edge>
    <edge id=":gneJ21_8" function="internal">
        <lane id=":gneJ21_8_0" index="0" speed="13.89" length="10.77" shape="14.99,-188.71 18.81,-189.00 20.19,-189.70 19.12,-190.82 15.60,-192.35"/>
    </edge>
    <edge id=":gneJ21_9" function="internal">
        <lane id=":gneJ21_9_0" index="0" speed="13.89" length="17.42" shape="14.99,-188.71 21.11,-189.26 25.45,-190.67 28.03,-192.96 28.83,-196.12"/>
    </edge>
    <edge id=":gneJ21_10" function="internal">
        <lane id=":gneJ21_10_0" index="0" speed="13.89" length="23.99" shape="14.99,-188.71 24.09,-188.25 30.19,-186.53 33.29,-183.55 33.39,-179.31"/>
    </edge>
    <edge id=":gneJ21_11" function="internal">
        <lane id=":gneJ21_11_0" index="0" speed="13.89" length="10.61" shape="23.88,-182.05 23.70,-183.58 22.17,-184.65 19.28,-185.26 15.04,-185.41"/>
    </edge>
    <edge id=":gneJ21_12" function="internal">
        <lane id=":gneJ21_12_0" index="0" speed="13.89" length="14.66" shape="23.88,-182.05 24.07,-185.16 22.75,-187.91 19.93,-190.31 15.60,-192.35"/>
    </edge>
    <edge id=":gneJ21_13" function="internal">
        <lane id=":gneJ21_13_0" index="0" speed="13.89" length="15.20" shape="23.88,-182.05 24.98,-186.10 25.50,-188.94 25.62,-191.83 25.53,-196.04"/>
        <lane id=":gneJ21_13_1" index="1" speed="13.89" length="15.20" shape="27.05,-181.13 28.23,-185.47 28.79,-188.52 28.92,-191.62 28.83,-196.12"/>
        <lane id=":gneJ21_13_2" index="2" speed="13.89" length="15.20" shape="30.22,-180.22 31.48,-184.85 32.08,-188.09 32.22,-191.40 32.13,-196.20"/>
    </edge>
    <edge id=":gneJ22_0" function="internal">
        <lane id=":gneJ22_0_0" index="0" speed="13.89" length="4.97" shape="21.51,-363.05 21.29,-364.39 20.69,-365.34 19.72,-365.92 18.38,-366.11"/>
    </edge>
    <edge id=":gneJ22_1" function="internal">
        <lane id=":gneJ22_1_0" index="0" speed="13.89" length="18.80" shape="18.38,-369.41 26.91,-369.04 33.03,-367.92 36.73,-366.06 38.01,-363.45"/>
        <lane id=":gneJ22_1_1" index="1" speed="13.89" length="18.80" shape="18.38,-369.41 25.47,-369.03 30.55,-367.90 33.63,-366.01 34.71,-363.37"/>
        <lane id=":gneJ22_1_2" index="2" speed="13.89" length="18.80" shape="18.38,-369.41 24.02,-369.03 28.08,-367.88 30.54,-365.97 31.41,-363.29"/>
    </edge>
    <edge id=":gneJ23_0" function="internal">
        <lane id=":gneJ23_0_0" index="0" speed="13.89" length="0.10" shape="-194.22,-366.11 -194.22,-366.11"/>
    </edge>
    <edge id=":gneJ23_1" function="internal">
        <lane id=":gneJ23_1_0" index="0" speed="13.89" length="0.10" shape="-194.22,-369.41 -194.22,-369.41"/>
    </edge>
    <edge id=":gneJ24_0" function="internal">
        <lane id=":gneJ24_0_0" index="0" speed="13.89" length="2.54" shape="-332.31,-366.11 -333.00,-366.01 -333.49,-365.72 -333.80,-365.23 -333.91,-364.55"/>
    </edge>
    <edge id=":gneJ24_1" function="internal">
        <lane id=":gneJ24_1_0" index="0" speed="13.89" length="7.77" shape="-337.21,-364.62 -336.86,-366.72 -335.93,-368.21 -334.42,-369.11 -332.31,-369.41"/>
    </edge>
    <edge id=":gneJ25_0" function="internal">
        <lane id=":gneJ25_0_0" index="0" speed="13.89" length="8.54" shape="-330.36,-273.78 -332.86,-272.03 -334.66,-270.45 -335.76,-269.04 -336.16,-267.79"/>
    </edge>
    <edge id=":gneJ25_1" function="internal">
        <lane id=":gneJ25_1_0" index="0" speed="13.89" length="14.27" shape="-330.36,-273.78 -334.29,-271.91 -337.06,-272.10 -338.68,-274.37 -339.14,-278.70"/>
    </edge>
    <edge id=":gneJ25_2" function="internal">
        <lane id=":gneJ25_2_0" index="0" speed="13.89" length="6.00" shape="-335.84,-278.62 -335.65,-276.80 -334.97,-275.85 -333.80,-275.77 -332.15,-276.55"/>
    </edge>
    <edge id=":gneJ25_3" function="internal">
        <lane id=":gneJ25_3_0" index="0" speed="13.89" length="10.84" shape="-335.84,-278.62 -336.16,-267.79"/>
    </edge>
    <edge id=":gneJ25_4" function="internal">
        <lane id=":gneJ25_4_0" index="0" speed="13.89" length="10.75" shape="-339.46,-267.95 -339.14,-278.70"/>
    </edge>
    <edge id=":gneJ25_5" function="internal">
        <lane id=":gneJ25_5_0" index="0" speed="13.89" length="4.46" shape="-339.46,-267.95 -338.93,-269.99 -337.64,-271.95"/>
    </edge>
    <edge id=":gneJ25_6" function="internal">
        <lane id=":gneJ25_6_0" index="0" speed="13.89" length="7.19" shape="-337.64,-271.95 -337.54,-272.11 -335.27,-274.30 -332.15,-276.55"/>
    </edge>
    <edge id=":gneJ26_0" function="internal">
        <lane id=":gneJ26_0_0" index="0" speed="13.89" length="8.10" shape="-339.76,-154.16 -341.96,-154.50 -343.50,-155.47 -344.38,-157.07 -344.59,-159.29"/>
    </edge>
    <edge id=":gneJ26_1" function="internal">
        <lane id=":gneJ26_1_0" index="0" speed="13.89" length="2.65" shape="-341.29,-159.13 -341.22,-158.41 -340.94,-157.89 -340.43,-157.57 -339.72,-157.46"/>
    </edge>
    <edge id=":gneJ27_0" function="internal">
        <lane id=":gneJ27_0_0" index="0" speed="13.89" length="7.77" shape="-170.72,-156.78 -171.09,-154.70 -172.04,-153.21 -173.57,-152.33 -175.68,-152.06"/>
    </edge>
    <edge id=":gneJ27_1" function="internal">
        <lane id=":gneJ27_1_0" index="0" speed="13.89" length="2.54" shape="-175.63,-155.36 -174.95,-155.45 -174.45,-155.74 -174.14,-156.22 -174.02,-156.90"/>
    </edge>
    <edge id=":gneJ28_0" function="internal">
        <lane id=":gneJ28_0_0" index="0" speed="13.89" length="5.50" shape="-166.52,-182.53 -167.96,-182.29 -169.01,-181.63 -169.66,-180.54 -169.92,-179.03"/>
    </edge>
    <edge id=":gneJ28_1" function="internal">
        <lane id=":gneJ28_1_0" index="0" speed="13.89" length="9.82" shape="-166.52,-182.53 -176.33,-182.25"/>
    </edge>
    <edge id=":gneJ28_2" function="internal">
        <lane id=":gneJ28_2_0" index="0" speed="13.89" length="5.24" shape="-166.52,-182.53 -169.38,-182.89 -171.40,-184.09"/>
    </edge>
    <edge id=":gneJ28_12" function="internal">
        <lane id=":gneJ28_12_0" index="0" speed="13.89" length="5.24" shape="-171.40,-184.09 -172.60,-186.11 -172.97,-188.97"/>
    </edge>
    <edge id=":gneJ28_3" function="internal">
        <lane id=":gneJ28_3_0" index="0" speed="13.89" length="5.04" shape="-169.67,-188.92 -169.50,-187.55 -168.92,-186.58 -167.94,-186.00 -166.57,-185.83"/>
    </edge>
    <edge id=":gneJ28_4" function="internal">
        <lane id=":gneJ28_4_0" index="0" speed="13.89" length="9.89" shape="-169.67,-188.92 -169.92,-179.03"/>
    </edge>
    <edge id=":gneJ28_5" function="internal">
        <lane id=":gneJ28_5_0" index="0" speed="13.89" length="5.40" shape="-169.67,-188.92 -170.12,-186.10 -171.38,-184.05 -171.50,-183.98"/>
    </edge>
    <edge id=":gneJ28_13" function="internal">
        <lane id=":gneJ28_13_0" index="0" speed="13.89" length="5.22" shape="-171.50,-183.98 -173.45,-182.76 -176.33,-182.25"/>
    </edge>
    <edge id=":gneJ28_6" function="internal">
        <lane id=":gneJ28_6_0" index="0" speed="13.89" length="5.51" shape="-176.46,-185.54 -174.95,-185.81 -173.87,-186.47 -173.21,-187.52 -172.97,-188.97"/>
    </edge>
    <edge id=":gneJ28_7" function="internal">
        <lane id=":gneJ28_7_0" index="0" speed="13.89" length="9.90" shape="-176.46,-185.54 -166.57,-185.83"/>
    </edge>
    <edge id=":gneJ28_8" function="internal">
        <lane id=":gneJ28_8_0" index="0" speed="13.89" length="5.36" shape="-176.46,-185.54 -173.51,-185.24 -171.43,-184.06"/>
    </edge>
    <edge id=":gneJ28_14" function="internal">
        <lane id=":gneJ28_14_0" index="0" speed="13.89" length="5.36" shape="-171.43,-184.06 -170.24,-181.99 -169.92,-179.03"/>
    </edge>
    <edge id=":gneJ28_9" function="internal">
        <lane id=":gneJ28_9_0" index="0" speed="13.89" length="5.09" shape="-173.22,-179.15 -173.37,-180.56 -173.94,-181.54 -174.92,-182.10 -176.33,-182.25"/>
    </edge>
    <edge id=":gneJ28_10" function="internal">
        <lane id=":gneJ28_10_0" index="0" speed="13.89" length="9.82" shape="-173.22,-179.15 -172.97,-188.97"/>
    </edge>
    <edge id=":gneJ28_11" function="internal">
        <lane id=":gneJ28_11_0" index="0" speed="13.89" length="5.36" shape="-173.22,-179.15 -172.71,-182.03 -171.44,-184.11"/>
    </edge>
    <edge id=":gneJ28_15" function="internal">
        <lane id=":gneJ28_15_0" index="0" speed="13.89" length="5.26" shape="-171.44,-184.11 -169.39,-185.37 -166.57,-185.83"/>
    </edge>
    <edge id=":gneJ29_0" function="internal">
        <lane id=":gneJ29_0_0" index="0" speed="13.89" length="5.47" shape="-165.16,-258.70 -166.71,-259.04 -167.82,-258.74 -168.50,-257.80 -168.74,-256.24"/>
    </edge>
    <edge id=":gneJ29_1" function="internal">
        <lane id=":gneJ29_1_0" index="0" speed="13.89" length="10.86" shape="-165.16,-258.70 -168.10,-259.74 -170.35,-260.33 -172.66,-260.56 -175.76,-260.56"/>
    </edge>
    <edge id=":gneJ29_2" function="internal">
        <lane id=":gneJ29_2_0" index="0" speed="13.89" length="6.16" shape="-165.16,-258.70 -168.12,-260.14 -170.33,-261.97"/>
    </edge>
    <edge id=":gneJ29_12" function="internal">
        <lane id=":gneJ29_12_0" index="0" speed="13.89" length="6.12" shape="-170.33,-261.97 -170.44,-262.06 -172.13,-264.45 -173.18,-267.32"/>
    </edge>
    <edge id=":gneJ29_3" function="internal">
        <lane id=":gneJ29_3_0" index="0" speed="13.89" length="9.02" shape="-169.97,-268.08 -169.20,-266.01 -167.95,-264.27 -166.23,-262.87 -164.03,-261.80"/>
    </edge>
    <edge id=":gneJ29_4" function="internal">
        <lane id=":gneJ29_4_0" index="0" speed="13.89" length="11.95" shape="-169.97,-268.08 -169.28,-264.88 -168.90,-262.21 -168.74,-259.52 -168.74,-256.24"/>
    </edge>
    <edge id=":gneJ29_5" function="internal">
        <lane id=":gneJ29_5_0" index="0" speed="13.89" length="5.71" shape="-169.97,-268.08 -169.68,-264.86 -170.55,-262.54"/>
    </edge>
    <edge id=":gneJ29_13" function="internal">
        <lane id=":gneJ29_13_0" index="0" speed="13.89" length="5.71" shape="-170.55,-262.54 -172.58,-261.10 -175.76,-260.56"/>
    </edge>
    <edge id=":gneJ29_6" function="internal">
        <lane id=":gneJ29_6_0" index="0" speed="13.89" length="5.27" shape="-175.85,-263.85 -174.38,-264.11 -173.45,-264.77 -173.05,-265.84 -173.18,-267.32"/>
    </edge>
    <edge id=":gneJ29_7" function="internal">
        <lane id=":gneJ29_7_0" index="0" speed="13.89" length="12.10" shape="-175.85,-263.85 -172.55,-263.83 -169.82,-263.52 -167.15,-262.87 -164.03,-261.80"/>
    </edge>
    <edge id=":gneJ29_8" function="internal">
        <lane id=":gneJ29_8_0" index="0" speed="13.89" length="5.94" shape="-175.85,-263.85 -172.70,-263.45 -170.47,-262.05 -170.41,-261.94"/>
    </edge>
    <edge id=":gneJ29_14" function="internal">
        <lane id=":gneJ29_14_0" index="0" speed="13.89" length="6.05" shape="-170.41,-261.94 -169.15,-259.64 -168.74,-256.24"/>
    </edge>
    <edge id=":gneJ29_9" function="internal">
        <lane id=":gneJ29_9_0" index="0" speed="13.89" length="6.51" shape="-172.04,-256.29 -172.25,-258.19 -172.94,-259.54 -174.11,-260.33 -175.76,-260.56"/>
    </edge>
    <edge id=":gneJ29_10" function="internal">
        <lane id=":gneJ29_10_0" index="0" speed="13.89" length="11.14" shape="-172.04,-256.29 -172.03,-259.44 -172.16,-261.85 -172.51,-264.25 -173.18,-267.32"/>
    </edge>
    <edge id=":gneJ29_11" function="internal">
        <lane id=":gneJ29_11_0" index="0" speed="13.89" length="5.33" shape="-172.04,-256.29 -171.50,-259.79 -170.45,-261.23"/>
    </edge>
    <edge id=":gneJ29_15" function="internal">
        <lane id=":gneJ29_15_0" index="0" speed="13.89" length="6.91" shape="-170.45,-261.23 -169.98,-261.87 -167.49,-262.54 -164.03,-261.80"/>
    </edge>
    <edge id=":gneJ3_0" function="internal">
        <lane id=":gneJ3_0_0" index="0" speed="13.89" length="5.89" shape="103.84,17.18 99.18,14.26"/>
        <lane id=":gneJ3_0_1" index="1" speed="13.89" length="5.89" shape="103.74,13.88 98.09,11.14"/>
    </edge>
    <edge id=":gneJ3_2" function="internal">
        <lane id=":gneJ3_2_0" index="0" speed="13.89" length="38.52" shape="103.74,13.88 89.57,13.01 83.18,9.30 84.56,2.76 93.70,-6.62"/>
        <lane id=":gneJ3_2_1" index="1" speed="13.89" length="38.52" shape="103.74,13.88 91.72,13.11 86.39,9.86 87.75,4.13 95.81,-4.08"/>
    </edge>
    <edge id=":gneJ3_4" function="internal">
        <lane id=":gneJ3_4_0" index="0" speed="13.89" length="7.28" shape="102.12,3.54 100.43,5.25 100.11,6.44 101.14,7.12 103.54,7.28"/>
    </edge>
    <edge id=":gneJ3_5" function="internal">
        <lane id=":gneJ3_5_0" index="0" speed="13.89" length="10.35" shape="102.12,3.54 99.18,14.26"/>
        <lane id=":gneJ3_5_1" index="1" speed="13.89" length="10.35" shape="100.02,1.00 98.09,11.14"/>
        <lane id=":gneJ3_5_2" index="2" speed="13.89" length="10.35" shape="97.91,-1.54 97.00,8.03"/>
    </edge>
    <edge id=":gneJ3_8" function="internal">
        <lane id=":gneJ3_8_0" index="0" speed="13.89" length="8.54" shape="93.73,-1.32 91.59,-9.16"/>
        <lane id=":gneJ3_8_1" index="1" speed="13.89" length="8.54" shape="94.82,1.80 93.70,-6.62"/>
        <lane id=":gneJ3_8_2" index="2" speed="13.89" length="8.54" shape="95.91,4.91 95.81,-4.08"/>
    </edge>
    <edge id=":gneJ3_11" function="internal">
        <lane id=":gneJ3_11_0" index="0" speed="13.89" length="10.40" shape="95.91,4.91 98.35,5.15 99.67,7.21 101.05,9.54 103.64,10.58"/>
    </edge>
    <edge id=":gneJ30_0" function="internal">