<routes>

    <vType id="Car" accel="1" decel="1" length="5" maxSpeed="60" sigma="0" guiShape="passenger"/>
    <vType id="Bus" accel="3" decel="5" length="10" maxSpeed="60" sigma="0" guiShape="bus"/>
    <vType id="Motorcycle" accel="5" decel="2" length="3" maxSpeed="60" sigma="1" guiShape="motorcycle"/>

    <route id="route_0" edges="-gneE49 -gneE48 -gneE47 -gneE46 -gneE45 gneE20 -gneE28 -gneE27 -gneE26 -gneE25 -gneE35 -gneE34 -gneE29 gneE21 gneE22 gneE23 gneE24 -gneE35 -gneE34 -gneE29 -gneE20 gneE2 gneE3 -gneE17"/>
    <route id="route_1" edges="-gneE59 -gneE58 -gneE57 -gneE56 -gneE55 -gneE54 -gneE53 -gneE52 -gneE51 -gneE50 -gneE2 gneE36 gneE37 gneE38 gneE39 gneE40 gneE41 gneE42"/>
    <route id="route_2" edges="gneE44 gneE2 gneE50 gneE51 gneE52 gneE53 gneE54 gneE55 gneE56 gneE57 gneE58 gneE59"/>
    <route id="route_3" edges="gneE60 gneE20 -gneE28 -gneE27 -gneE26 -gneE25 -gneE35 -gneE34 -gneE33 -gneE32 -gneE31 -gneE30 -gneE29 -gneE20 gneE2 gneE3 -gneE17"/>
    <!-- <route id="route_4" edges=""/>
    <route id="route_5" edges=""/>
    <route id="route_6" edges=""/>
    <route id="route_7" edges=""/>
    <route id="route_8" edges=""/>
    <route id="route_9" edges=""/>
    <route id="route_10" edges=""/>
    <route id="route_11" edges=""/> -->

    <!-- <flow id="fluxo_carro" beguin="0" end="0" type="Car" number="10" route="route_0" color="1,0,0"/>-->
	<vehicle id="car0" depart="0" departLane="best" route="route_3" type="Car" color=".8,.7,.2"/>
	<vehicle id="car1" depart="1" departLane="best" route="route_1" type="Car" color=".6,.6,.7"/>
	<vehicle id="car2" depart="2" departLane="best" route="route_1" type="Car" color=".5,.1,.6"/>
	<vehicle id="car3" depart="3" departLane="best" route="route_1" type="Car" color=".0,.8,.0"/>
	<vehicle id="car4" depart="4" departLane="best" route="route_3" type="Car" color=".0,.0,.6"/>
	<vehicle id="car5" depart="5" departLane="best" route="route_0" type="Car" color=".5,.0,.4"/>
	<vehicle id="car6" depart="6" departLane="best" route="route_1" type="Car" color=".4,.8,.6"/>
	<vehicle id="car7" depart="7" departLane="best" route="route_3" type="Car" color=".9,.3,.0"/>
	<vehicle id="car8" depart="8" departLane="best" route="route_1" type="Car" color=".5,.4,.4"/>
	<vehicle id="car9" depart="9" departLane="best" route="route_2" type="Car" color=".6,.1,.9"/>
	<vehicle id="car10" depart="10" departLane="best" route="route_0" type="Car" color=".0,.6,.3"/>
	<vehicle id="car11" depart="11" departLane="best" route="route_1" type="Car" color=".6,.4,.0"/>
	<vehicle id="car12" depart="12" departLane="best" route="route_3" type="Car" color=".8,.8,.1"/>
	<vehicle id="car13" depart="13" departLane="best" route="route_1" type="Car" color=".6,.9,.3"/>
	<vehicle id="car14" depart="14" departLane="best" route="route_1" type="Car" color=".6,.8,.9"/>
	<vehicle id="car15" depart="15" departLane="best" route="route_2" type="Car" color=".7,.3,.4"/>
	<vehicle id="car16" depart="16" departLane="best" route="route_1" type="Car" color=".3,.6,.3"/>
	<vehicle id="car17" depart="17" departLane="best" route="route_3" type="Car" color=".3,.6,.3"/>
	<vehicle id="car18" depart="18" departLane="best" route="route_3" type="Car" color=".6,.2,.0"/>
	<vehicle id="car19" depart="19" departLane="best" route="route_0" type="Car" color=".3,.4,.0"/>
	<vehicle id="car20" depart="20" departLane="best" route="route_1" type="Car" color=".8,.6,.7"/>
	<vehicle id="car21" depart="21" departLane="best" route="route_0" type="Car" color=".5,.8,.1"/>
	<vehicle id="car22" depart="22" departLane="best" route="route_3" type="Car" color=".6,.4,.8"/>
	<vehicle id="car23" depart="23" departLane="best" route="route_0" type="Car" color=".3,.9,.7"/>
	<vehicle id="car24" depart="24" departLane="best" route="route_1" type="Car" color=".6,.7,.4"/>
	<vehicle id="car25" depart="25" departLane="best" route="route_1" type="Car" color=".4,.9,.1"/>
	<vehicle id="car26" depart="26" departLane="best" route="route_0" type="Car" color=".1,.1,.4"/>
	<vehicle id="car27" depart="27" departLane="best" route="route_2" type="Car" color=".2,.9,.2"/>
	<vehicle id="car28" depart="28" departLane="best" route="route_1" type="Car" color=".4,.0,.0"/>
	<vehicle id="car29" depart="29" departLane="best" route="route_0" type="Car" color=".5,.2,.7"/>
	<vehicle id="car30" depart="30" departLane="best" route="route_3" type="Car" color=".1,.7,.2"/>
	<vehicle id="car31" depart="31" departLane="best" route="route_2" type="Car" color=".5,.6,.1"/>
	<vehicle id="car32" depart="32" departLane="best" route="route_2" type="Car" color=".6,.8,.8"/>
	<vehicle id="car33" depart="33" departLane="best" route="route_0" type="Car" color=".8,.4,.1"/>
	<vehicle id="car34" depart="34" departLane="best" route="route_3" type="Car" color=".8,.5,.6"/>
	<vehicle id="car35" depart="35" departLane="best" route="route_0" type="Car" color=".9,.7,.3"/>
	<vehicle id="car36" depart="36" departLane="best" route="route_3" type="Car" color=".4,.9,.5"/>
	<vehicle id="car37" depart="37" departLane="best" route="route_3" type="Car" color=".3,.6,.3"/>
	<vehicle id="car38" depart="38" departLane="best" route="route_0" type="Car" color=".4,.7,.7"/>
	<vehicle id="car39" depart="39" departLane="best" route="route_2" type="Car" color=".9,.8,.9"/>
	<vehicle id="car40" depart="40" departLane="best" route="route_2" type="Car" color=".7,.4,.6"/>
	<vehicle id="car41" depart="41" departLane="best" route="route_1" type="Car" color=".1,.0,.5"/>
	<vehicle id="car42" depart="42" departLane="best" route="route_0" type="Car" color=".1,.6,.0"/>
	<vehicle id="car43" depart="43" departLane="best" route="route_1" type="Car" color=".2,.8,.4"/>
	<vehicle id="car44" depart="44" departLane="best" route="route_3" type="Car" color=".0,.9,.4"/>
	<vehicle id="car45" depart="45" departLane="best" route="route_1" type="Car" color=".3,.2,.2"/>
	<vehicle id="car46" depart="46" departLane="best" route="route_2" type="Car" color=".2,.1,.2"/>
	<vehicle id="car47" depart="47" departLane="best" route="route_1" type="Car" color=".2,.7,.1"/>
	<vehicle id="car48" depart="48" departLane="best" route="route_0" type="Car" color=".8,.5,.3"/>
	<vehicle id="car49" depart="49" departLane="best" route="route_2" type="Car" color=".8,.3,.3"/>
	<vehicle id="car50" depart="50" departLane="best" route="route_0" type="Car" color=".9,.3,.0"/>
	<vehicle id="car51" depart="51" departLane="best" route="route_2" type="Car" color=".6,.4,.8"/>
	<vehicle id="car52" depart="52" departLane="best" route="route_3" type="Car" color=".8,.1,.9"/>
	<vehicle id="car53" depart="53" departLane="best" route="route_0" type="Car" color=".4,.0,.0"/>
	<vehicle id="car54" depart="54" departLane="best" route="route_2" type="Car" color=".4,.1,.7"/>
	<vehicle id="car55" depart="55" departLane="best" route="route_0" type="Car" color=".3,.7,.8"/>
	<vehicle id="car56" depart="56" departLane="best" route="route_3" type="Car" color=".4,.9,.4"/>
	<vehicle id="car57" depart="57" departLane="best" route="route_2" type="Car" color=".8,.4,.6"/>
	<vehicle id="car58" depart="58" departLane="best" route="route_0" type="Car" color=".0,.0,.4"/>
	<vehicle id="car59" depart="59" departLane="best" route="route_3" type="Car" color=".6,.8,.1"/>
	<vehicle id="car60" depart="60" departLane="best" route="route_2" type="Car" color=".3,.7,.0"/>
	<vehicle id="car61" depart="61" departLane="best" route="route_1" type="Car" color=".4,.0,.9"/>
	<vehicle id="car62" depart="62" departLane="best" route="route_1" type="Car" color=".9,.1,.9"/>
	<vehicle id="car63" depart="63" departLane="best" route="route_0" type="Car" color=".0,.5,.5"/>
	<vehicle id="car64" depart="64" departLane="best" route="route_3" type="Car" color=".7,.0,.8"/>
	<vehicle id="car65" depart="65" departLane="best" route="route_2" type="Car" color=".2,.8,.6"/>
	<vehicle id="car66" depart="66" departLane="best" route="route_0" type="Car" color=".3,.1,.2"/>
	<vehicle id="car67" depart="67" departLane="best" route="route_0" type="Car" color=".3,.3,.4"/>
	<vehicle id="car68" depart="68" departLane="best" route="route_3" type="Car" color=".7,.4,.8"/>
	<vehicle id="car69" depart="69" departLane="best" route="route_2" type="Car" color=".2,.9,.1"/>
	<vehicle id="car70" depart="70" departLane="best" route="route_3" type="Car" color=".5,.1,.6"/>
	<vehicle id="car71" depart="71" departLane="best" route="route_3" type="Car" color=".9,.5,.3"/>
	<vehicle id="car72" depart="72" departLane="best" route="route_0" type="Car" color=".0,.6,.9"/>
	<vehicle id="car73" depart="73" departLane="best" route="route_0" type="Car" color=".5,.0,.2"/>
	<vehicle id="car74" depart="74" departLane="best" route="route_3" type="Car" color=".2,.5,.7"/>
	<vehicle id="car75" depart="75" departLane="best" route="route_1" type="Car" color=".1,.2,.8"/>
	<vehicle id="car76" depart="76" departLane="best" route="route_3" type="Car" color=".0,.8,.6"/>
	<vehicle id="car77" depart="77" departLane="best" route="route_2" type="Car" color=".5,.4,.5"/>
	<vehicle id="car78" depart="78" departLane="best" route="route_3" type="Car" color=".4,.1,.4"/>
	<vehicle id="car79" depart="79" departLane="best" route="route_0" type="Car" color=".7,.9,.8"/>
	<vehicle id="car80" depart="80" departLane="best" route="route_0" type="Car" color=".1,.7,.7"/>
	<vehicle id="car81" depart="81" departLane="best" route="route_1" type="Car" color=".9,.6,.0"/>
	<vehicle id="car82" depart="82" departLane="best" route="route_1" type="Car" color=".5,.5,.8"/>
	<vehicle id="car83" depart="83" departLane="best" route="route_2" type="Car" color=".0,.3,.5"/>
	<vehicle id="car84" depart="84" departLane="best" route="route_2" type="Car" color=".4,.1,.8"/>
	<vehicle id="car85" depart="85" departLane="best" route="route_3" type="Car" color=".5,.8,.4"/>
	<vehicle id="car86" depart="86" departLane="best" route="route_1" type="Car" color=".8,.9,.8"/>
	<vehicle id="car87" depart="87" departLane="best" route="route_0" type="Car" color=".0,.8,.1"/>
	<vehicle id="car88" depart="88" departLane="best" route="route_2" type="Car" color=".3,.7,.0"/>
	<vehicle id="car89" depart="89" departLane="best" route="route_0" type="Car" color=".9,.8,.8"/>
	<vehicle id="car90" depart="90" departLane="best" route="route_2" type="Car" color=".6,.4,.4"/>
	<vehicle id="car91" depart="91" departLane="best" route="route_0" type="Car" color=".3,.2,.4"/>
	<vehicle id="car92" depart="92" departLane="best" route="route_3" type="Car" color=".8,.6,.5"/>
	<vehicle id="car93" depart="93" departLane="best" route="route_0" type="Car" color=".2,.8,.5"/>
	<vehicle id="car94" depart="94" departLane="best" route="route_1" type="Car" color=".1,.0,.6"/>
	<vehicle id="car95" depart="95" departLane="best" route="route_2" type="Car" color=".6,.4,.2"/>
	<vehicle id="car96" depart="96" departLane="best" route="route_3" type="Car" color=".2,.6,.2"/>
	<vehicle id="car97" depart="97" departLane="best" route="route_3" type="Car" color=".1,.4,.6"/>
	<vehicle id="car98" depart="98" departLane="best" route="route_0" type="Car" color=".3,.1,.0"/>
	<vehicle id="car99" depart="99" departLane="best" route="route_0" type="Car" color=".0,.7,.4"/>
	<vehicle id="bus0" depart="100" departLane="best" route="route_2" type="Bus" color=".3,.9,.7">
		<stop busStop="busStop_gneE52_0_0" duration="20"/>
		<stop busStop="busStop_gneE57_0_1" duration="20"/>
	</vehicle>
	<vehicle id="bus1" depart="101" departLane="best" route="route_2" type="Bus" color=".5,.9,.9">
		<stop busStop="busStop_gneE52_0_0" duration="20"/>
		<stop busStop="busStop_gneE57_0_1" duration="20"/>
	</vehicle>
	<vehicle id="bus2" depart="102" departLane="best" route="route_2" type="Bus" color=".5,.8,.7">
		<stop busStop="busStop_gneE52_0_0" duration="20"/>
		<stop busStop="busStop_gneE57_0_1" duration="20"/>
	</vehicle>
	<vehicle id="bus3" depart="103" departLane="best" route="route_2" type="Bus" color=".3,.3,.9">
		<stop busStop="busStop_gneE52_0_0" duration="20"/>
		<stop busStop="busStop_gneE57_0_1" duration="20"/>
	</vehicle>
	<vehicle id="bus4" depart="104" departLane="best" route="route_2" type="Bus" color=".3,.2,.5">
		<stop busStop="busStop_gneE52_0_0" duration="20"/>
		<stop busStop="busStop_gneE57_0_1" duration="20"/>
	</vehicle>
	<vehicle id="bus5" depart="105" departLane="best" route="route_2" type="Bus" color=".3,.1,.5">
		<stop busStop="busStop_gneE52_0_0" duration="20"/>
		<stop busStop="busStop_gneE57_0_1" duration="20"/>
	</vehicle>
	<vehicle id="bus6" depart="106" departLane="best" route="route_2" type="Bus" color=".5,.6,.7">
		<stop busStop="busStop_gneE52_0_0" duration="20"/>
		<stop busStop="busStop_gneE57_0_1" duration="20"/>
	</vehicle>
	<vehicle id="bus7" depart="107" departLane="best" route="route_2" type="Bus" color=".1,.2,.4">
		<stop busStop="busStop_gneE52_0_0" duration="20"/>
		<stop busStop="busStop_gneE57_0_1" duration="20"/>
	</vehicle>
	<vehicle id="bus8" depart="108" departLane="best" route="route_2" type="Bus" color=".3,.3,.1">
		<stop busStop="busStop_gneE52_0_0" duration="20"/>
		<stop busStop="busStop_gneE57_0_1" duration="20"/>
	</vehicle>
	<vehicle id="bus9" depart="109" departLane="best" route="route_2" type="Bus" color=".2,.0,.8">
		<stop busStop="busStop_gneE52_0_0" duration="20"/>
		<stop busStop="busStop_gneE57_0_1" duration="20"/>
	</vehicle>
	<vehicle id="bus10" depart="110" departLane="best" route="route_2" type="Bus" color=".0,.4,.0">
		<stop busStop="busStop_gneE52_0_0" duration="20"/>
		<stop busStop="busStop_gneE57_0_1" duration="20"/>
	</vehicle>
	<vehicle id="bus11" depart="111" departLane="best" route="route_2" type="Bus" color=".2,.1,.3">
		<stop busStop="busStop_gneE52_0_0" duration="20"/>
		<stop busStop="busStop_gneE57_0_1" duration="20"/>
	</vehicle>
	<vehicle id="bus12" depart="112" departLane="best" route="route_2" type="Bus" color=".4,.8,.5">
		<stop busStop="busStop_gneE52_0_0" duration="20"/>
		<stop busStop="busStop_gneE57_0_1" duration="20"/>
	</vehicle>
	<vehicle id="bus13" depart="113" departLane="best" route="route_2" type="Bus" color=".0,.1,.3">
		<stop busStop="busStop_gneE52_0_0" duration="20"/>
		<stop busStop="busStop_gneE57_0_1" duration="20"/>
	</vehicle>
	<vehicle id="bus14" depart="114" departLane="best" route="route_2" type="Bus" color=".6,.7,.3">
		<stop busStop="busStop_gneE52_0_0" duration="20"/>
		<stop busStop="busStop_gneE57_0_1" duration="20"/>
	</vehicle>
	<vehicle id="bus15" depart="115" departLane="best" route="route_2" type="Bus" color=".6,.1,.2">
		<stop busStop="busStop_gneE52_0_0" duration="20"/>
		<stop busStop="busStop_gneE57_0_1" duration="20"/>
	</vehicle>
	<vehicle id="bus16" depart="116" departLane="best" route="route_2" type="Bus" color=".1,.3,.2">
		<stop busStop="busStop_gneE52_0_0" duration="20"/>
		<stop busStop="busStop_gneE57_0_1" duration="20"/>
	</vehicle>
	<vehicle id="bus17" depart="117" departLane="best" route="route_2" type="Bus" color=".2,.2,.0">
		<stop busStop="busStop_gneE52_0_0" duration="20"/>
		<stop busStop="busStop_gneE57_0_1" duration="20"/>
	</vehicle>
	<vehicle id="bus18" depart="118" departLane="best" route="route_2" type="Bus" color=".9,.7,.5">
		<stop busStop="busStop_gneE52_0_0" duration="20"/>
		<stop busStop="busStop_gneE57_0_1" duration="20"/>
	</vehicle>
	<vehicle id="bus19" depart="119" departLane="best" route="route_2" type="Bus" color=".2,.6,.8">
		<stop busStop="busStop_gneE52_0_0" duration="20"/>
		<stop busStop="busStop_gneE57_0_1" duration="20"/>
	</vehicle>
	<vehicle id="bus20" depart="120" departLane="best" route="route_2" type="Bus" color=".1,.0,.9">
		<stop busStop="busStop_gneE52_0_0" duration="20"/>
		<stop busStop="busStop_gneE57_0_1" duration="20"/>
	</vehicle>
	<vehicle id="bus21" depart="121" departLane="best" route="route_2" type="Bus" color=".3,.2,.0">
		<stop busStop="busStop_gneE52_0_0" duration="20"/>
		<stop busStop="busStop_gneE57_0_1" duration="20"/>
	</vehicle>
	<vehicle id="bus22" depart="122" departLane="best" route="route_2" type="Bus" color=".6,.6,.6">
		<stop busStop="busStop_gneE52_0_0" duration="20"/>
		<stop busStop="busStop_gneE57_0_1" duration="20"/>
	</vehicle>
	<vehicle id="bus23" depart="123" departLane="best" route="route_2" type="Bus" color=".1,.8,.9">
		<stop busStop="busStop_gneE52_0_0" duration="20"/>
		<stop busStop="busStop_gneE57_0_1" duration="20"/>
	</vehicle>
	<vehicle id="bus24" depart="124" departLane="best" route="route_2" type="Bus" color=".6,.1,.8">
		<stop busStop="busStop_gneE52_0_0" duration="20"/>
		<stop busStop="busStop_gneE57_0_1" duration="20"/>
	</vehicle>
	<vehicle id="bus25" depart="125" departLane="best" route="route_2" type="Bus" color=".4,.3,.7">
		<stop busStop="busStop_gneE52_0_0" duration="20"/>
		<stop busStop="busStop_gneE57_0_1" duration="20"/>
	</vehicle>
	<vehicle id="bus26" depart="126" departLane="best" route="route_2" type="Bus" color=".5,.1,.7">
		<stop busStop="busStop_gneE52_0_0" duration="20"/>
		<stop busStop="busStop_gneE57_0_1" duration="20"/>
	</vehicle>
	<vehicle id="bus27" depart="127" departLane="best" route="route_2" type="Bus" color=".0,.6,.8">
		<stop busStop="busStop_gneE52_0_0" duration="20"/>
		<stop busStop="busStop_gneE57_0_1" duration="20"/>
	</vehicle>
	<vehicle id="bus28" depart="128" departLane="best" route="route_2" type="Bus" color=".8,.0,.5">
		<stop busStop="busStop_gneE52_0_0" duration="20"/>
		<stop busStop="busStop_gneE57_0_1" duration="20"/>
	</vehicle>
	<vehicle id="bus29" depart="129" departLane="best" route="route_2" type="Bus" color=".0,.3,.5">
		<stop busStop="busStop_gneE52_0_0" duration="20"/>
		<stop busStop="busStop_gneE57_0_1" duration="20"/>
	</vehicle>
	<vehicle id="bus30" depart="130" departLane="best" route="route_2" type="Bus" color=".0,.3,.1">
		<stop busStop="busStop_gneE52_0_0" duration="20"/>
		<stop busStop="busStop_gneE57_0_1" duration="20"/>
	</vehicle>
	<vehicle id="bus31" depart="131" departLane="best" route="route_2" type="Bus" color=".0,.3,.3">
		<stop busStop="busStop_gneE52_0_0" duration="20"/>
		<stop busStop="busStop_gneE57_0_1" duration="20"/>
	</vehicle>
	<vehicle id="bus32" depart="132" departLane="best" route="route_2" type="Bus" color=".3,.7,.8">
		<stop busStop="busStop_gneE52_0_0" duration="20"/>
		<stop busStop="busStop_gneE57_0_1" duration="20"/>
	</vehicle>
	<vehicle id="bus33" depart="133" departLane="best" route="route_2" type="Bus" color=".1,.6,.0">
		<stop busStop="busStop_gneE52_0_0" duration="20"/>
		<stop busStop="busStop_gneE57_0_1" duration="20"/>
	</vehicle>
	<vehicle id="bus34" depart="134" departLane="best" route="route_2" type="Bus" color=".0,.0,.6">
		<stop busStop="busStop_gneE52_0_0" duration="20"/>
		<stop busStop="busStop_gneE57_0_1" duration="20"/>
	</vehicle>
	<vehicle id="bus35" depart="135" departLane="best" route="route_2" type="Bus" color=".1,.1,.9">
		<stop busStop="busStop_gneE52_0_0" duration="20"/>
		<stop busStop="busStop_gneE57_0_1" duration="20"/>
	</vehicle>
	<vehicle id="bus36" depart="136" departLane="best" route="route_2" type="Bus" color=".6,.8,.9">
		<stop busStop="busStop_gneE52_0_0" duration="20"/>
		<stop busStop="busStop_gneE57_0_1" duration="20"/>
	</vehicle>
	<vehicle id="bus37" depart="137" departLane="best" route="route_2" type="Bus" color=".6,.5,.6">
		<stop busStop="busStop_gneE52_0_0" duration="20"/>
		<stop busStop="busStop_gneE57_0_1" duration="20"/>
	</vehicle>
	<vehicle id="bus38" depart="138" departLane="best" route="route_2" type="Bus" color=".6,.3,.8">
		<stop busStop="busStop_gneE52_0_0" duration="20"/>
		<stop busStop="busStop_gneE57_0_1" duration="20"/>
	</vehicle>
	<vehicle id="bus39" depart="139" departLane="best" route="route_2" type="Bus" color=".0,.5,.2">
		<stop busStop="busStop_gneE52_0_0" duration="20"/>
		<stop busStop="busStop_gneE57_0_1" duration="20"/>
	</vehicle>
	<vehicle id="bus40" depart="140" departLane="best" route="route_2" type="Bus" color=".8,.2,.3">
		<stop busStop="busStop_gneE52_0_0" duration="20"/>
		<stop busStop="busStop_gneE57_0_1" duration="20"/>
	</vehicle>
	<vehicle id="bus41" depart="141" departLane="best" route="route_2" type="Bus" color=".5,.4,.5">
		<stop busStop="busStop_gneE52_0_0" duration="20"/>
		<stop busStop="busStop_gneE57_0_1" duration="20"/>
	</vehicle>
	<vehicle id="bus42" depart="142" departLane="best" route="route_2" type="Bus" color=".3,.3,.1">
		<stop busStop="busStop_gneE52_0_0" duration="20"/>
		<stop busStop="busStop_gneE57_0_1" duration="20"/>
	</vehicle>
	<vehicle id="bus43" depart="143" departLane="best" route="route_2" type="Bus" color=".9,.0,.8">
		<stop busStop="busStop_gneE52_0_0" duration="20"/>
		<stop busStop="busStop_gneE57_0_1" duration="20"/>
	</vehicle>
	<vehicle id="bus44" depart="144" departLane="best" route="route_2" type="Bus" color=".7,.9,.7">
		<stop busStop="busStop_gneE52_0_0" duration="20"/>
		<stop busStop="busStop_gneE57_0_1" duration="20"/>
	</vehicle>
	<vehicle id="bus45" depart="145" departLane="best" route="route_2" type="Bus" color=".5,.4,.1">
		<stop busStop="busStop_gneE52_0_0" duration="20"/>
		<stop busStop="busStop_gneE57_0_1" duration="20"/>
	</vehicle>
	<vehicle id="bus46" depart="146" departLane="best" route="route_2" type="Bus" color=".0,.9,.5">
		<stop busStop="busStop_gneE52_0_0" duration="20"/>
		<stop busStop="busStop_gneE57_0_1" duration="20"/>
	</vehicle>
	<vehicle id="bus47" depart="147" departLane="best" route="route_2" type="Bus" color=".6,.9,.6">
		<stop busStop="busStop_gneE52_0_0" duration="20"/>
		<stop busStop="busStop_gneE57_0_1" duration="20"/>
	</vehicle>
	<vehicle id="bus48" depart="148" departLane="best" route="route_2" type="Bus" color=".5,.8,.6">
		<stop busStop="busStop_gneE52_0_0" duration="20"/>
		<stop busStop="busStop_gneE57_0_1" duration="20"/>
	</vehicle>
	<vehicle id="bus49" depart="149" departLane="best" route="route_2" type="Bus" color=".9,.0,.3">
		<stop busStop="busStop_gneE52_0_0" duration="20"/>
		<stop busStop="busStop_gneE57_0_1" duration="20"/>
	</vehicle>
	<vehicle id="bus50" depart="150" departLane="best" route="route_2" type="Bus" color=".1,.8,.8">
		<stop busStop="busStop_gneE52_0_0" duration="20"/>
		<stop busStop="busStop_gneE57_0_1" duration="20"/>
	</vehicle>
	<vehicle id="bus51" depart="151" departLane="best" route="route_2" type="Bus" color=".9,.3,.5">
		<stop busStop="busStop_gneE52_0_0" duration="20"/>
		<stop busStop="busStop_gneE57_0_1" duration="20"/>
	</vehicle>
	<vehicle id="bus52" depart="152" departLane="best" route="route_2" type="Bus" color=".0,.5,.3">
		<stop busStop="busStop_gneE52_0_0" duration="20"/>
		<stop busStop="busStop_gneE57_0_1" duration="20"/>
	</vehicle>
	<vehicle id="bus53" depart="153" departLane="best" route="route_2" type="Bus" color=".3,.9,.4">
		<stop busStop="busStop_gneE52_0_0" duration="20"/>
		<stop busStop="busStop_gneE57_0_1" duration="20"/>
	</vehicle>
	<vehicle id="bus54" depart="154" departLane="best" route="route_2" type="Bus" color=".4,.9,.8">
		<stop busStop="busStop_gneE52_0_0" duration="20"/>
		<stop busStop="busStop_gneE57_0_1" duration="20"/>
	</vehicle>
	<vehicle id="bus55" depart="155" departLane="best" route="route_2" type="Bus" color=".2,.1,.7">
		<stop busStop="busStop_gneE52_0_0" duration="20"/>
		<stop busStop="busStop_gneE57_0_1" duration="20"/>
	</vehicle>
	<vehicle id="bus56" depart="156" departLane="best" route="route_2" type="Bus" color=".5,.6,.6">
		<stop busStop="busStop_gneE52_0_0" duration="20"/>
		<stop busStop="busStop_gneE57_0_1" duration="20"/>
	</vehicle>
	<vehicle id="bus57" depart="157" departLane="best" route="route_2" type="Bus" color=".6,.5,.7">
		<stop busStop="busStop_gneE52_0_0" duration="20"/>
		<stop busStop="busStop_gneE57_0_1" duration="20"/>
	</vehicle>
	<vehicle id="bus58" depart="158" departLane="best" route="route_2" type="Bus" color=".3,.0,.5">
		<stop busStop="busStop_gneE52_0_0" duration="20"/>
		<stop busStop="busStop_gneE57_0_1" duration="20"/>
	</vehicle>
	<vehicle id="bus59" depart="159" departLane="best" route="route_2" type="Bus" color=".6,.4,.1">
		<stop busStop="busStop_gneE52_0_0" duration="20"/>
		<stop busStop="busStop_gneE57_0_1" duration="20"/>
	</vehicle>
	<vehicle id="bus60" depart="160" departLane="best" route="route_2" type="Bus" color=".4,.9,.9">
		<stop busStop="busStop_gneE52_0_0" duration="20"/>
		<stop busStop="busStop_gneE57_0_1" duration="20"/>
	</vehicle>
	<vehicle id="bus61" depart="161" departLane="best" route="route_2" type="Bus" color=".8,.2,.7">
		<stop busStop="busStop_gneE52_0_0" duration="20"/>
		<stop busStop="busStop_gneE57_0_1" duration="20"/>
	</vehicle>
	<vehicle id="bus62" depart="162" departLane="best" route="route_2" type="Bus" color=".6,.1,.0">
		<stop busStop="busStop_gneE52_0_0" duration="20"/>
		<stop busStop="busStop_gneE57_0_1" duration="20"/>
	</vehicle>
	<vehicle id="bus63" depart="163" departLane="best" route="route_2" type="Bus" color=".7,.5,.3">
		<stop busStop="busStop_gneE52_0_0" duration="20"/>
		<stop busStop="busStop_gneE57_0_1" duration="20"/>
	</vehicle>
	<vehicle id="bus64" depart="164" departLane="best" route="route_2" type="Bus" color=".9,.0,.7">
		<stop busStop="busStop_gneE52_0_0" duration="20"/>
		<stop busStop="busStop_gneE57_0_1" duration="20"/>
	</vehicle>
	<vehicle id="bus65" depart="165" departLane="best" route="route_2" type="Bus" color=".6,.0,.1">
		<stop busStop="busStop_gneE52_0_0" duration="20"/>
		<stop busStop="busStop_gneE57_0_1" duration="20"/>
	</vehicle>
	<vehicle id="bus66" depart="166" departLane="best" route="route_2" type="Bus" color=".6,.1,.8">
		<stop busStop="busStop_gneE52_0_0" duration="20"/>
		<stop busStop="busStop_gneE57_0_1" duration="20"/>
	</vehicle>
	<vehicle id="bus67" depart="167" departLane="best" route="route_2" type="Bus" color=".1,.9,.4">
		<stop busStop="busStop_gneE52_0_0" duration="20"/>
		<stop busStop="busStop_gneE57_0_1" duration="20"/>
	</vehicle>
	<vehicle id="bus68" depart="168" departLane="best" route="route_2" type="Bus" color=".7,.9,.8">
		<stop busStop="busStop_gneE52_0_0" duration="20"/>
		<stop busStop="busStop_gneE57_0_1" duration="20"/>
	</vehicle>
	<vehicle id="bus69" depart="169" departLane="best" route="route_2" type="Bus" color=".8,.5,.8">
		<stop busStop="busStop_gneE52_0_0" duration="20"/>
		<stop busStop="busStop_gneE57_0_1" duration="20"/>
	</vehicle>
	<vehicle id="bus70" depart="170" departLane="best" route="route_2" type="Bus" color=".0,.7,.4">
		<stop busStop="busStop_gneE52_0_0" duration="20"/>
		<stop busStop="busStop_gneE57_0_1" duration="20"/>
	</vehicle>
	<vehicle id="bus71" depart="171" departLane="best" route="route_2" type="Bus" color=".5,.6,.6">
		<stop busStop="busStop_gneE52_0_0" duration="20"/>
		<stop busStop="busStop_gneE57_0_1" duration="20"/>
	</vehicle>
	<vehicle id="bus72" depart="172" departLane="best" route="route_2" type="Bus" color=".7,.6,.3">
		<stop busStop="busStop_gneE52_0_0" duration="20"/>
		<stop busStop="busStop_gneE57_0_1" duration="20"/>
	</vehicle>
	<vehicle id="bus73" depart="173" departLane="best" route="route_2" type="Bus" color=".7,.0,.9">
		<stop busStop="busStop_gneE52_0_0" duration="20"/>
		<stop busStop="busStop_gneE57_0_1" duration="20"/>
	</vehicle>
	<vehicle id="bus74" depart="174" departLane="best" route="route_2" type="Bus" color=".1,.0,.3">
		<stop busStop="busStop_gneE52_0_0" duration="20"/>
		<stop busStop="busStop_gneE57_0_1" duration="20"/>
	</vehicle>
	<vehicle id="bus75" depart="175" departLane="best" route="route_2" type="Bus" color=".0,.5,.5">
		<stop busStop="busStop_gneE52_0_0" duration="20"/>
		<stop busStop="busStop_gneE57_0_1" duration="20"/>
	</vehicle>
	<vehicle id="bus76" depart="176" departLane="best" route="route_2" type="Bus" color=".8,.4,.2">
		<stop busStop="busStop_gneE52_0_0" duration="20"/>
		<stop busStop="busStop_gneE57_0_1" duration="20"/>
	</vehicle>
	<vehicle id="bus77" depart="177" departLane="best" route="route_2" type="Bus" color=".3,.8,.6">
		<stop busStop="busStop_gneE52_0_0" duration="20"/>
		<stop busStop="busStop_gneE57_0_1" duration="20"/>
	</vehicle>
	<vehicle id="bus78" depart="178" departLane="best" route="route_2" type="Bus" color=".2,.8,.3">
		<stop busStop="busStop_gneE52_0_0" duration="20"/>
		<stop busStop="busStop_gneE57_0_1" duration="20"/>
	</vehicle>
	<vehicle id="bus79" depart="179" departLane="best" route="route_2" type="Bus" color=".7,.1,.1">
		<stop busStop="busStop_gneE52_0_0" duration="20"/>
		<stop busStop="busStop_gneE57_0_1" duration="20"/>
	</vehicle>
	<vehicle id="bus80" depart="180" departLane="best" route="route_2" type="Bus" color=".7,.9,.4">
		<stop busStop="busStop_gneE52_0_0" duration="20"/>
		<stop busStop="busStop_gneE57_0_1" duration="20"/>
	</vehicle>
	<vehicle id="bus81" depart="181" departLane="best" route="route_2" type="Bus" color=".8,.0,.0">
		<stop busStop="busStop_gneE52_0_0" duration="20"/>
		<stop busStop="busStop_gneE57_0_1" duration="20"/>
	</vehicle>
	<vehicle id="bus82" depart="182" departLane="best" route="route_2" type="Bus" color=".7,.7,.9">
		<stop busStop="busStop_gneE52_0_0" duration="20"/>
		<stop busStop="busStop_gneE57_0_1" duration="20"/>
	</vehicle>
	<vehicle id="bus83" depart="183" departLane="best" route="route_2" type="Bus" color=".0,.8,.6">
		<stop busStop="busStop_gneE52_0_0" duration="20"/>
		<stop busStop="busStop_gneE57_0_1" duration="20"/>
	</vehicle>
	<vehicle id="bus84" depart="184" departLane="best" route="route_2" type="Bus" color=".0,.2,.8">
		<stop busStop="busStop_gneE52_0_0" duration="20"/>
		<stop busStop="busStop_gneE57_0_1" duration="20"/>
	</vehicle>
	<vehicle id="bus85" depart="185" departLane="best" route="route_2" type="Bus" color=".8,.0,.8">
		<stop busStop="busStop_gneE52_0_0" duration="20"/>
		<stop busStop="busStop_gneE57_0_1" duration="20"/>
	</vehicle>
	<vehicle id="bus86" depart="186" departLane="best" route="route_2" type="Bus" color=".4,.4,.9">
		<stop busStop="busStop_gneE52_0_0" duration="20"/>
		<stop busStop="busStop_gneE57_0_1" duration="20"/>
	</vehicle>
	<vehicle id="bus87" depart="187" departLane="best" route="route_2" type="Bus" color=".8,.3,.7">
		<stop busStop="busStop_gneE52_0_0" duration="20"/>
		<stop busStop="busStop_gneE57_0_1" duration="20"/>
	</vehicle>