<routes>
    <vType if="" accel="" decel="" length="" maxSpeed="" sigma=""/>
    <route id="" edges=""/>

    <flow id="" type="" beg="" end="" number="" route="" color="">
</routes>
