<routes>

    <route id="route_0" edges="-gneE49 -gneE48 -gneE47 -gneE46 -gneE45 gneE20 -gneE28 -gneE27 -gneE26 -gneE25 -gneE35 -gneE34 -gneE29 gneE21 gneE22 gneE23 gneE24 -gneE35 -gneE34 -gneE29 -gneE20 gneE2 gneE3 -gneE17"/>
    <route id="route_1" edges="-gneE59 -gneE58 -gneE57 -gneE56 -gneE55 -gneE54 -gneE53 -gneE52 -gneE51 -gneE50 -gneE2 gneE36 gneE37 gneE38 gneE39 gneE40 gneE41 gneE42"/>
    <route id="route_2" edges="gneE44 gneE2 gneE50 gneE51 gneE52 gneE53 gneE54 gneE55 gneE56 gneE57 gneE58 gneE59"/>
    <!-- <route id="route_3" edges=""/>
    <route id="route_4" edges=""/>
    <route id="route_5" edges=""/>
    <route id="route_6" edges=""/>
    <route id="route_7" edges=""/>
    <route id="route_8" edges=""/>
    <route id="route_9" edges=""/>
    <route id="route_10" edges=""/>
    <route id="route_11" edges=""/> -->

</routes>
