<routes>

    <vType id="Car" accel="1" decel="1" length="5" maxSpeed="60" sigma="0" guiShape="passenger"/>
    <vType id="Bus" accel="3" decel="5" length="10" maxSpeed="60" sigma="0" guiShape="bus"/>
    <vType id="Motorcycle" accel="5" decel="2" length="3" maxSpeed="60" sigma="1" guiShape="motorcycle"/>

    <route id="route_0" edges="-gneE49 -gneE48 -gneE47 -gneE46 -gneE45 gneE20 -gneE28 -gneE27 -gneE26 -gneE25 -gneE35 -gneE34 -gneE29 gneE21 gneE22 gneE23 gneE24 -gneE35 -gneE34 -gneE29 -gneE20 gneE2 gneE3 -gneE17"/>
    <route id="route_1" edges="-gneE59 -gneE58 -gneE57 -gneE56 -gneE55 -gneE54 -gneE53 -gneE52 -gneE51 -gneE50 -gneE2 gneE36 gneE37 gneE38 gneE39 gneE40 gneE41 gneE42"/>
    <route id="route_2" edges="gneE44 gneE2 gneE50 gneE51 gneE52 gneE53 gneE54 gneE55 gneE56 gneE57 gneE58 gneE59"/>
    <!-- <route id="route_3" edges=""/>
    <route id="route_4" edges=""/>
    <route id="route_5" edges=""/>
    <route id="route_6" edges=""/>
    <route id="route_7" edges=""/>
    <route id="route_8" edges=""/>
    <route id="route_9" edges=""/>
    <route id="route_10" edges=""/>
    <route id="route_11" edges=""/> -->

    <flow id="fluxo_carro" beguin="0" end="0" type="Car" number="10" route="route_0" color="1,0,0"/>
    <vehicle id="car1" depart="0" departLane="best" type="Car" route="route_0" color="1,0,1"/>
    <vehicle id="bus1" depart="0" departLane="best" type="Bus" route="route_2" color="1,0,1">
        <stop busStop="busStop#1" duration="20"/>
    </vehicle>
    <vehicle id="moto1" depart="0" departLane="best" type="Motorcycle" route="route_0" color="1,0,1"/>
    <vehicle id="car2" depart="10" departLane="best" type="Car" route="route_0" color="1,.3,1"/>
    <vehicle id="bus2" depart="10" departLane="best" type="Bus" route="route_0" color="1,.3,1">

    </vehicle>
    <vehicle id="moto2" depart="10" departLane="best" type="Motorcycle" route="route_0" color="1,0,1"/>
    <vehicle id="car3" depart="20" departLane="best" type="Car" route="route_0" color="0,1,1"/>
    <vehicle id="bus3" depart="20" departLane="best" type="Bus" route="route_0" color="0,1,1"/>
    <vehicle id="moto3" depart="20" departLane="best" type="Motorcycle" route="route_0" color="1,0,1"/>
    <vehicle id="car4" depart="30" departLane="best" type="Car" route="route_0" color="0,0,0"/>
    <vehicle id="bus4" depart="30" departLane="best" type="Bus" route="route_0" color="0,0,0"/>
    <vehicle id="moto4" depart="30" departLane="best" type="Motorcycle" route="route_0" color="1,0,1"/>
    <vehicle id="car5" depart="40" departLane="best" type="Car" route="route_0" color="1,1,1"/>
    <vehicle id="bus5" depart="40" departLane="best" type="Bus" route="route_0" color="1,1,1"/>
    <vehicle id="moto5" depart="40" departLane="best" type="Motorcycle" route="route_0" color="1,0,1"/>
    <vehicle id="car6" depart="50" departLane="best" type="Car" route="route_0" color=".2,.5,0"/>
    <vehicle id="bus6" depart="50" departLane="best" type="Bus" route="route_0" color=".2,.5,0"/>
    <vehicle id="moto6" depart="50" departLane="best" type="Motorcycle" route="route_0" color="1,0,1"/>
    <vehicle id="car7" depart="60" departLane="best" type="Car" route="route_1" color="1,1,1"/>
    <vehicle id="bus7" depart="60" departLane="best" type="Bus" route="route_1" color="1,1,1"/>
    <vehicle id="moto7" depart="60" departLane="best" type="Motorcycle" route="route_1" color="1,0,1"/>
    <vehicle id="car8" depart="70" departLane="best" type="Car" route="route_1" color="1,1,1"/>
    <vehicle id="bus8" depart="70" departLane="best" type="Bus" route="route_1" color="1,1,1"/>
    <vehicle id="moto8" depart="70" departLane="best" type="Motorcycle" route="route_1" color="1,0,1"/>
    <vehicle id="car9" depart="80" departLane="best" type="Car" route="route_1" color="1,1,1"/>
    <vehicle id="bus9" depart="80" departLane="best" type="Bus" route="route_1" color="1,1,1"/>
    <vehicle id="moto9" depart="80" departLane="best" type="Motorcycle" route="route_1" color="1,0,1"/>
    <vehicle id="car10" depart="90" departLane="best" type="Car" route="route_1" color="1,1,1"/>
    <vehicle id="bus10" depart="90" departLane="best" type="Bus" route="route_1" color="1,1,1"/>
    <vehicle id="moto10" depart="90" departLane="best" type="Motorcycle" route="route_1" color="1,0,1"/>
    <vehicle id="car11" depart="100" departLane="best" type="Car" route="route_1" color="1,1,1"/>
    <vehicle id="bus11" depart="100" departLane="best" type="Bus" route="route_1" color="1,1,1"/>
    <vehicle id="moto11" depart="100" departLane="best" type="Motorcycle" route="route_1" color="1,0,1"/>
    <vehicle id="car12" depart="110" departLane="best" type="Car" route="route_1" color="1,1,1"/>
    <vehicle id="bus12" depart="110" departLane="best" type="Bus" route="route_1" color="1,1,1"/>
    <vehicle id="moto12" depart="110" departLane="best" type="Motorcycle" route="route_1" color="1,0,1"/>

</routes>
