<routes>

    <vType id="Car" accel="1" decel="1" length="5" maxSpeed="60" sigma="0" guiShape="passenger"/>
    <vType id="Bus" accel="3" decel="5" length="10" maxSpeed="60" sigma="0" guiShape="bus"/>
    <vType id="Motorcycle" accel="5" decel="2" length="3" maxSpeed="60" sigma="1" guiShape="motorcycle"/>

    <route id="route_0" edges="-gneE49 -gneE48 -gneE47 -gneE46 -gneE45 gneE20 -gneE28 -gneE27 -gneE26 -gneE25 -gneE35 -gneE34 -gneE29 gneE21 gneE22 gneE23 gneE24 -gneE35 -gneE34 -gneE29 -gneE20 gneE2 gneE3 -gneE17"/>
    <route id="route_1" edges="-gneE59 -gneE58 -gneE57 -gneE56 -gneE55 -gneE54 -gneE53 -gneE52 -gneE51 -gneE50 -gneE2 gneE36 gneE37 gneE38 gneE39 gneE40 gneE41 gneE42"/>
    <route id="route_2" edges="gneE44 gneE2 gneE50 gneE51 gneE52 gneE53 gneE54 gneE55 gneE56 gneE57 gneE58 gneE59"/>
    <route id="route_3" edges="gneE60 gneE20 -gneE28 -gneE27 -gneE26 -gneE25 -gneE35 -gneE34 -gneE33 -gneE32 -gneE31 -gneE30 -gneE29 -gneE20 gneE2 gneE3 -gneE17"/>
    <!-- <route id="route_4" edges=""/>
    <route id="route_5" edges=""/>
    <route id="route_6" edges=""/>
    <route id="route_7" edges=""/>
    <route id="route_8" edges=""/>
    <route id="route_9" edges=""/>
    <route id="route_10" edges=""/>
    <route id="route_11" edges=""/> -->

    <!-- <flow id="fluxo_carro" beguin="0" end="0" type="Car" number="10" route="route_0" color="1,0,0"/>-->
	<vehicle id="car0" depart="0" departLane="best" route="route_1" type="Car" color=".1,.1,.4"/>
	<vehicle id="car1" depart="1" departLane="best" route="route_0" type="Car" color=".6,.2,.7"/>
	<vehicle id="car2" depart="2" departLane="best" route="route_0" type="Car" color=".3,.3,.0"/>
	<vehicle id="car3" depart="3" departLane="best" route="route_3" type="Car" color=".9,.9,.2"/>
	<vehicle id="car4" depart="4" departLane="best" route="route_1" type="Car" color=".6,.3,.3"/>
	<vehicle id="car5" depart="5" departLane="best" route="route_2" type="Car" color=".6,.6,.8"/>
	<vehicle id="car6" depart="6" departLane="best" route="route_3" type="Car" color=".2,.8,.0"/>
	<vehicle id="car7" depart="7" departLane="best" route="route_0" type="Car" color=".7,.5,.9"/>
	<vehicle id="car8" depart="8" departLane="best" route="route_1" type="Car" color=".1,.8,.8"/>
	<vehicle id="car9" depart="9" departLane="best" route="route_3" type="Car" color=".7,.6,.8"/>
	<vehicle id="car10" depart="10" departLane="best" route="route_3" type="Car" color=".9,.4,.1"/>
	<vehicle id="car11" depart="11" departLane="best" route="route_2" type="Car" color=".0,.9,.7"/>
	<vehicle id="car12" depart="12" departLane="best" route="route_2" type="Car" color=".7,.1,.9"/>
	<vehicle id="car13" depart="13" departLane="best" route="route_3" type="Car" color=".5,.4,.4"/>
	<vehicle id="car14" depart="14" departLane="best" route="route_1" type="Car" color=".7,.5,.6"/>
	<vehicle id="car15" depart="15" departLane="best" route="route_0" type="Car" color=".2,.7,.5"/>
	<vehicle id="car16" depart="16" departLane="best" route="route_2" type="Car" color=".7,.5,.4"/>
	<vehicle id="car17" depart="17" departLane="best" route="route_1" type="Car" color=".6,.5,.5"/>
	<vehicle id="car18" depart="18" departLane="best" route="route_0" type="Car" color=".1,.7,.2"/>
	<vehicle id="car19" depart="19" departLane="best" route="route_3" type="Car" color=".0,.3,.1"/>
	<vehicle id="car20" depart="20" departLane="best" route="route_3" type="Car" color=".2,.2,.9"/>
	<vehicle id="car21" depart="21" departLane="best" route="route_2" type="Car" color=".1,.6,.7"/>
	<vehicle id="car22" depart="22" departLane="best" route="route_2" type="Car" color=".0,.1,.8"/>
	<vehicle id="car23" depart="23" departLane="best" route="route_0" type="Car" color=".6,.3,.3"/>
	<vehicle id="car24" depart="24" departLane="best" route="route_2" type="Car" color=".2,.2,.2"/>
	<vehicle id="car25" depart="25" departLane="best" route="route_3" type="Car" color=".8,.1,.7"/>
	<vehicle id="car26" depart="26" departLane="best" route="route_2" type="Car" color=".8,.6,.5"/>
	<vehicle id="car27" depart="27" departLane="best" route="route_0" type="Car" color=".8,.4,.5"/>
	<vehicle id="car28" depart="28" departLane="best" route="route_2" type="Car" color=".3,.1,.5"/>
	<vehicle id="car29" depart="29" departLane="best" route="route_2" type="Car" color=".3,.2,.0"/>
	<vehicle id="bus0" depart="30" departLane="best" route="route_2" type="Bus" color=".9,.1,.2">
		<stop busStop="busStop_gneE52_0_0" duration="20"/>
		<stop busStop="busStop_gneE57_0_1" duration="20"/>
	</vehicle>
	<vehicle id="bus1" depart="31" departLane="best" route="route_2" type="Bus" color=".5,.8,.4">
		<stop busStop="busStop_gneE52_0_0" duration="20"/>
		<stop busStop="busStop_gneE57_0_1" duration="20"/>
	</vehicle>
	<vehicle id="bus2" depart="32" departLane="best" route="route_2" type="Bus" color=".9,.8,.8">
		<stop busStop="busStop_gneE52_0_0" duration="20"/>
		<stop busStop="busStop_gneE57_0_1" duration="20"/>
	</vehicle>
	<vehicle id="bus3" depart="33" departLane="best" route="route_2" type="Bus" color=".4,.0,.3">
		<stop busStop="busStop_gneE52_0_0" duration="20"/>
		<stop busStop="busStop_gneE57_0_1" duration="20"/>
	</vehicle>
	<vehicle id="bus4" depart="34" departLane="best" route="route_2" type="Bus" color=".9,.2,.3">
		<stop busStop="busStop_gneE52_0_0" duration="20"/>
		<stop busStop="busStop_gneE57_0_1" duration="20"/>
	</vehicle>
	<vehicle id="bus5" depart="35" departLane="best" route="route_2" type="Bus" color=".4,.8,.5">
		<stop busStop="busStop_gneE52_0_0" duration="20"/>
		<stop busStop="busStop_gneE57_0_1" duration="20"/>
	</vehicle>
	<vehicle id="bus6" depart="36" departLane="best" route="route_2" type="Bus" color=".3,.3,.5">
		<stop busStop="busStop_gneE52_0_0" duration="20"/>
		<stop busStop="busStop_gneE57_0_1" duration="20"/>
	</vehicle>
	<vehicle id="bus7" depart="37" departLane="best" route="route_2" type="Bus" color=".5,.6,.8">
		<stop busStop="busStop_gneE52_0_0" duration="20"/>
		<stop busStop="busStop_gneE57_0_1" duration="20"/>
	</vehicle>
	<vehicle id="bus8" depart="38" departLane="best" route="route_2" type="Bus" color=".9,.4,.4">
		<stop busStop="busStop_gneE52_0_0" duration="20"/>
		<stop busStop="busStop_gneE57_0_1" duration="20"/>
	</vehicle>
	<vehicle id="bus9" depart="39" departLane="best" route="route_2" type="Bus" color=".3,.4,.0">
		<stop busStop="busStop_gneE52_0_0" duration="20"/>
		<stop busStop="busStop_gneE57_0_1" duration="20"/>
	</vehicle>
	<vehicle id="bus10" depart="40" departLane="best" route="route_2" type="Bus" color=".8,.5,.4">
		<stop busStop="busStop_gneE52_0_0" duration="20"/>
		<stop busStop="busStop_gneE57_0_1" duration="20"/>
	</vehicle>
	<vehicle id="bus11" depart="41" departLane="best" route="route_2" type="Bus" color=".5,.4,.5">
		<stop busStop="busStop_gneE52_0_0" duration="20"/>
		<stop busStop="busStop_gneE57_0_1" duration="20"/>
	</vehicle>
	<vehicle id="bus12" depart="42" departLane="best" route="route_2" type="Bus" color=".6,.4,.1">
		<stop busStop="busStop_gneE52_0_0" duration="20"/>
		<stop busStop="busStop_gneE57_0_1" duration="20"/>
	</vehicle>
	<vehicle id="bus13" depart="43" departLane="best" route="route_2" type="Bus" color=".8,.9,.6">
		<stop busStop="busStop_gneE52_0_0" duration="20"/>
		<stop busStop="busStop_gneE57_0_1" duration="20"/>
	</vehicle>
	<vehicle id="bus14" depart="44" departLane="best" route="route_2" type="Bus" color=".2,.6,.2">
		<stop busStop="busStop_gneE52_0_0" duration="20"/>
		<stop busStop="busStop_gneE57_0_1" duration="20"/>
	</vehicle>
	<vehicle id="bus15" depart="45" departLane="best" route="route_2" type="Bus" color=".4,.5,.1">
		<stop busStop="busStop_gneE52_0_0" duration="20"/>
		<stop busStop="busStop_gneE57_0_1" duration="20"/>
	</vehicle>
	<vehicle id="bus16" depart="46" departLane="best" route="route_2" type="Bus" color=".5,.5,.9">
		<stop busStop="busStop_gneE52_0_0" duration="20"/>
		<stop busStop="busStop_gneE57_0_1" duration="20"/>
	</vehicle>
	<vehicle id="bus17" depart="47" departLane="best" route="route_2" type="Bus" color=".7,.7,.4">
		<stop busStop="busStop_gneE52_0_0" duration="20"/>
		<stop busStop="busStop_gneE57_0_1" duration="20"/>
	</vehicle>
	<vehicle id="bus18" depart="48" departLane="best" route="route_2" type="Bus" color=".5,.9,.1">
		<stop busStop="busStop_gneE52_0_0" duration="20"/>
		<stop busStop="busStop_gneE57_0_1" duration="20"/>
	</vehicle>
	<vehicle id="bus19" depart="49" departLane="best" route="route_2" type="Bus" color=".0,.1,.3">
		<stop busStop="busStop_gneE52_0_0" duration="20"/>
		<stop busStop="busStop_gneE57_0_1" duration="20"/>
	</vehicle>
	<vehicle id="bus20" depart="50" departLane="best" route="route_2" type="Bus" color=".3,.7,.3">
		<stop busStop="busStop_gneE52_0_0" duration="20"/>
		<stop busStop="busStop_gneE57_0_1" duration="20"/>
	</vehicle>
	<vehicle id="bus21" depart="51" departLane="best" route="route_2" type="Bus" color=".6,.5,.2">
		<stop busStop="busStop_gneE52_0_0" duration="20"/>
		<stop busStop="busStop_gneE57_0_1" duration="20"/>
	</vehicle>
	<vehicle id="bus22" depart="52" departLane="best" route="route_2" type="Bus" color=".2,.3,.3">
		<stop busStop="busStop_gneE52_0_0" duration="20"/>
		<stop busStop="busStop_gneE57_0_1" duration="20"/>
	</vehicle>
	<vehicle id="bus23" depart="53" departLane="best" route="route_2" type="Bus" color=".7,.8,.8">
		<stop busStop="busStop_gneE52_0_0" duration="20"/>
		<stop busStop="busStop_gneE57_0_1" duration="20"/>
	</vehicle>
	<vehicle id="bus24" depart="54" departLane="best" route="route_2" type="Bus" color=".1,.3,.7">
		<stop busStop="busStop_gneE52_0_0" duration="20"/>
		<stop busStop="busStop_gneE57_0_1" duration="20"/>
	</vehicle>
	<vehicle id="bus25" depart="55" departLane="best" route="route_2" type="Bus" color=".3,.3,.1">
		<stop busStop="busStop_gneE52_0_0" duration="20"/>
		<stop busStop="busStop_gneE57_0_1" duration="20"/>
	</vehicle>
	<vehicle id="bus26" depart="56" departLane="best" route="route_2" type="Bus" color=".5,.3,.6">
		<stop busStop="busStop_gneE52_0_0" duration="20"/>
		<stop busStop="busStop_gneE57_0_1" duration="20"/>
	</vehicle>
	<vehicle id="bus27" depart="57" departLane="best" route="route_2" type="Bus" color=".5,.6,.8">
		<stop busStop="busStop_gneE52_0_0" duration="20"/>
		<stop busStop="busStop_gneE57_0_1" duration="20"/>
	</vehicle>
	<vehicle id="bus28" depart="58" departLane="best" route="route_2" type="Bus" color=".9,.5,.6">
		<stop busStop="busStop_gneE52_0_0" duration="20"/>
		<stop busStop="busStop_gneE57_0_1" duration="20"/>
	</vehicle>
	<vehicle id="bus29" depart="59" departLane="best" route="route_2" type="Bus" color=".3,.3,.4">
		<stop busStop="busStop_gneE52_0_0" duration="20"/>
		<stop busStop="busStop_gneE57_0_1" duration="20"/>
	</vehicle>
</routes>